data/mpower/sp_case1354.m
function mpc = sp_case1354
% SP_CASE1354  Synthetic 1354-bus operated grid, generated by the maintainer's case generator
% (seed in the script). Two voltage levels (220 kV and the backbone at
% 380 kV), 6 areas, 2040 branches, 260 generator buses
% (0 synchronous condensers), 900 loads with
% 30003 MW / 9719 Mvar. Self-built, no external data, no external license.
%
% Validated in the generator: base case 3 NR iterations, Vmin 0.9661 pu, Vmax
% 1.0362 pu, highest branch loading 85.6 %, 36 generators at a reactive
% limit, slack (bus 685) 881.0 MW, written as that unit's Pg. N-1 over 60 of 2040 branches:
% 2 outages island a bus, 0 do not converge. Ratings are sized per
% branch to the base-case flow with 30 percent headroom in the usual classes.

%% MATPOWER Case Format : Version 2
mpc.version = '2';

%%-----  Power Flow Data  -----%%
%% system MVA base
mpc.baseMVA = 100;

%% bus data
%	bus_i	type	Pd	Qd	Gs	Bs	area	Vm	Va	baseKV	zone	Vmax	Vmin
mpc.bus = [
	1	2	0.0	0.0	0.0	0.0	1	1.0	0.0	220.0	1	1.06	0.94;
	2	1	31.0	10.0	0.0	0.0	1	1.0	0.0	220.0	1	1.06	0.94;
	3	1	18.0	5.0	0.0	0.0	1	1.0	0.0	220.0	1	1.06	0.94;
	4	1	15.0	5.0	0.0	0.0	1	1.0	0.0	220.0	1	1.06	0.94;
	5	1	22.0	9.0	0.0	0.0	1	1.0	0.0	220.0	1	1.06	0.94;
	6	1	0.0	0.0	0.0	0.0	1	1.0	0.0	220.0	1	1.06	0.94;
	7	1	15.0	5.0	0.0	0.0	1	1.0	0.0	220.0	1	1.06	0.94;
	8	2	0.0	0.0	0.0	0.0	1	1.0	0.0	380.0	1	1.06	0.94;
	9	2	0.0	0.0	0.0	0.0	1	1.0	0.0	220.0	1	1.06	0.94;
	10	1	9.0	3.0	0.0	0.0	1	1.0	0.0	220.0	1	1.06	0.94;
	11	1	18.0	6.0	0.0	0.0	1	1.0	0.0	220.0	1	1.06	0.94;
	12	1	27.0	9.0	0.0	0.0	1	1.0	0.0	220.0	1	1.06	0.94;
	13	1	10.0	4.0	0.0	0.0	1	1.0	0.0	220.0	1	1.06	0.94;
	14	1	18.0	6.0	0.0	0.0	1	1.0	0.0	220.0	1	1.06	0.94;
	15	1	15.0	4.0	0.0	0.0	1	1.0	0.0	220.0	1	1.06	0.94;
	16	2	40.0	11.0	0.0	0.0	1	1.0	0.0	220.0	1	1.06	0.94;
	17	1	61.0	16.0	0.0	20.0	1	1.0	0.0	220.0	1	1.06	0.94;
	18	1	27.0	10.0	0.0	0.0	1	1.0	0.0	220.0	1	1.06	0.94;
	19	1	72.0	29.0	0.0	15.0	1	1.0	0.0	220.0	1	1.06	0.94;
	20	1	20.0	5.0	0.0	0.0	1	1.0	0.0	220.0	1	1.06	0.94;
	21	1	16.0	6.0	0.0	0.0	1	1.0	0.0	220.0	1	1.06	0.94;
	22	1	9.0	3.0	0.0	0.0	1	1.0	0.0	220.0	1	1.06	0.94;
	23	2	0.0	0.0	0.0	0.0	1	1.0	0.0	380.0	1	1.06	0.94;
	24	2	0.0	0.0	0.0	0.0	1	1.0	0.0	220.0	1	1.06	0.94;
	25	1	29.0	9.0	0.0	0.0	1	1.0	0.0	220.0	1	1.06	0.94;
	26	1	0.0	0.0	0.0	0.0	1	1.0	0.0	220.0	1	1.06	0.94;
	27	1	20.0	7.0	0.0	0.0	1	1.0	0.0	220.0	1	1.06	0.94;
	28	1	72.0	22.0	0.0	30.0	1	1.0	0.0	220.0	1	1.06	0.94;
	29	1	46.0	14.0	0.0	0.0	1	1.0	0.0	220.0	1	1.06	0.94;
	30	1	20.0	8.0	0.0	0.0	1	1.0	0.0	220.0	1	1.06	0.94;
	31	2	23.0	8.0	0.0	0.0	1	1.0	0.0	220.0	1	1.06	0.94;
	32	1	0.0	0.0	0.0	0.0	1	1.0	0.0	220.0	1	1.06	0.94;
	33	1	22.0	9.0	0.0	0.0	1	1.0	0.0	220.0	1	1.06	0.94;
	34	1	13.0	4.0	0.0	0.0	1	1.0	0.0	220.0	1	1.06	0.94;
	35	1	0.0	0.0	0.0	0.0	1	1.0	0.0	220.0	1	1.06	0.94;
	36	1	22.0	7.0	0.0	0.0	1	1.0	0.0	220.0	1	1.06	0.94;
	37	1	60.0	23.0	0.0	20.0	1	1.0	0.0	220.0	1	1.06	0.94;
	38	2	0.0	0.0	0.0	0.0	1	1.0	0.0	380.0	1	1.06	0.94;
	39	2	0.0	0.0	0.0	0.0	1	1.0	0.0	220.0	1	1.06	0.94;
	40	1	25.0	7.0	0.0	0.0	1	1.0	0.0	220.0	1	1.06	0.94;
	41	1	33.0	13.0	0.0	0.0	1	1.0	0.0	220.0	1	1.06	0.94;
	42	1	27.0	7.0	0.0	0.0	1	1.0	0.0	220.0	1	1.06	0.94;
	43	1	75.0	28.0	0.0	30.0	1	1.0	0.0	220.0	1	1.06	0.94;
	44	1	27.0	8.0	0.0	0.0	1	1.0	0.0	220.0	1	1.06	0.94;
	45	1	32.0	10.0	0.0	0.0	1	1.0	0.0	220.0	1	1.06	0.94;
	46	2	0.0	0.0	0.0	0.0	1	1.0	0.0	220.0	1	1.06	0.94;
	47	1	38.0	11.0	0.0	0.0	1	1.0	0.0	220.0	1	1.06	0.94;
	48	1	37.0	14.0	0.0	0.0	1	1.0	0.0	220.0	1	1.06	0.94;
	49	1	25.0	7.0	0.0	0.0	1	1.0	0.0	220.0	1	1.06	0.94;
	50	1	28.0	9.0	0.0	0.0	1	1.0	0.0	220.0	1	1.06	0.94;
	51	1	0.0	0.0	0.0	0.0	1	1.0	0.0	220.0	1	1.06	0.94;
	52	1	41.0	12.0	0.0	0.0	1	1.0	0.0	220.0	1	1.06	0.94;
	53	2	0.0	0.0	0.0	0.0	1	1.0	0.0	380.0	1	1.06	0.94;
	54	2	0.0	0.0	0.0	0.0	1	1.0	0.0	220.0	1	1.06	0.94;
	55	1	24.0	6.0	0.0	0.0	1	1.0	0.0	220.0	1	1.06	0.94;
	56	1	31.0	12.0	0.0	0.0	1	1.0	0.0	220.0	1	1.06	0.94;
	57	1	21.0	8.0	0.0	0.0	1	1.0	0.0	220.0	1	1.06	0.94;
	58	1	0.0	0.0	0.0	0.0	1	1.0	0.0	220.0	1	1.06	0.94;
	59	1	38.0	10.0	0.0	0.0	1	1.0	0.0	220.0	1	1.06	0.94;
	60	1	51.0	16.0	0.0	0.0	1	1.0	0.0	220.0	1	1.06	0.94;
	61	2	0.0	0.0	0.0	0.0	1	1.0	0.0	220.0	1	1.06	0.94;
	62	1	0.0	0.0	0.0	0.0	1	1.0	0.0	220.0	1	1.06	0.94;
	63	1	64.0	21.0	0.0	20.0	1	1.0	0.0	220.0	1	1.06	0.94;
	64	1	21.0	6.0	0.0	0.0	1	1.0	0.0	220.0	1	1.06	0.94;
	65	1	10.0	4.0	0.0	0.0	1	1.0	0.0	220.0	1	1.06	0.94;
	66	1	18.0	5.0	0.0	0.0	1	1.0	0.0	220.0	1	1.06	0.94;
	67	1	69.0	23.0	0.0	15.0	1	1.0	0.0	220.0	1	1.06	0.94;
	68	2	0.0	0.0	0.0	0.0	1	1.0	0.0	380.0	1	1.06	0.94;
	69	2	0.0	0.0	0.0	0.0	1	1.0	0.0	220.0	1	1.06	0.94;
	70	1	48.0	15.0	0.0	0.0	1	1.0	0.0	220.0	1	1.06	0.94;
	71	1	17.0	6.0	0.0	0.0	1	1.0	0.0	220.0	1	1.06	0.94;
	72	1	26.0	9.0	0.0	0.0	1	1.0	0.0	220.0	1	1.06	0.94;
	73	1	21.0	7.0	0.0	0.0	1	1.0	0.0	220.0	1	1.06	0.94;
	74	1	0.0	0.0	0.0	0.0	1	1.0	0.0	220.0	1	1.06	0.94;
	75	1	0.0	0.0	0.0	0.0	1	1.0	0.0	220.0	1	1.06	0.94;
	76	2	18.0	6.0	0.0	0.0	1	1.0	0.0	220.0	1	1.06	0.94;
	77	1	31.0	9.0	0.0	0.0	1	1.0	0.0	220.0	1	1.06	0.94;
	78	1	12.0	4.0	0.0	0.0	1	1.0	0.0	220.0	1	1.06	0.94;
	79	1	33.0	9.0	0.0	0.0	1	1.0	0.0	220.0	1	1.06	0.94;
	80	1	0.0	0.0	0.0	0.0	1	1.0	0.0	220.0	1	1.06	0.94;
	81	1	24.0	9.0	0.0	0.0	1	1.0	0.0	220.0	1	1.06	0.94;
	82	1	48.0	17.0	0.0	0.0	1	1.0	0.0	220.0	1	1.06	0.94;
	83	2	0.0	0.0	0.0	0.0	1	1.0	0.0	380.0	1	1.06	0.94;
	84	2	20.0	7.0	0.0	0.0	1	1.0	0.0	220.0	1	1.06	0.94;
	85	1	52.0	19.0	0.0	0.0	1	1.0	0.0	220.0	1	1.06	0.94;
	86	1	128.0	47.0	0.0	15.0	1	1.0	0.0	220.0	1	1.06	0.94;
	87	1	26.0	7.0	0.0	0.0	1	1.0	0.0	220.0	1	1.06	0.94;
	88	1	17.0	7.0	0.0	0.0	1	1.0	0.0	220.0	1	1.06	0.94;
	89	1	22.0	7.0	0.0	0.0	1	1.0	0.0	220.0	1	1.06	0.94;
	90	1	0.0	0.0	0.0	0.0	1	1.0	0.0	220.0	1	1.06	0.94;
	91	2	0.0	0.0	0.0	0.0	1	1.0	0.0	220.0	1	1.06	0.94;
	92	1	32.0	11.0	0.0	0.0	1	1.0	0.0	220.0	1	1.06	0.94;
	93	1	0.0	0.0	0.0	0.0	1	1.0	0.0	220.0	1	1.06	0.94;
	94	1	64.0	24.0	0.0	15.0	1	1.0	0.0	220.0	1	1.06	0.94;
	95	1	0.0	0.0	0.0	0.0	1	1.0	0.0	220.0	1	1.06	0.94;
	96	1	18.0	5.0	0.0	0.0	1	1.0	0.0	220.0	1	1.06	0.94;
	97	1	25.0	9.0	0.0	0.0	1	1.0	0.0	220.0	1	1.06	0.94;
	98	2	0.0	0.0	0.0	0.0	1	1.0	0.0	380.0	1	1.06	0.94;
	99	2	0.0	0.0	0.0	0.0	1	1.0	0.0	220.0	1	1.06	0.94;
	100	1	0.0	0.0	0.0	0.0	1	1.0	0.0	220.0	1	1.06	0.94;
	101	1	28.0	9.0	0.0	0.0	1	1.0	0.0	220.0	1	1.06	0.94;
	102	1	17.0	5.0	0.0	0.0	1	1.0	0.0	220.0	1	1.06	0.94;
	103	1	30.0	10.0	0.0	0.0	1	1.0	0.0	220.0	1	1.06	0.94;
	104	1	0.0	0.0	0.0	0.0	1	1.0	0.0	220.0	1	1.06	0.94;
	105	1	73.0	19.0	0.0	15.0	1	1.0	0.0	220.0	1	1.06	0.94;
	106	2	0.0	0.0	0.0	0.0	1	1.0	0.0	220.0	1	1.06	0.94;
	107	1	36.0	10.0	0.0	0.0	1	1.0	0.0	220.0	1	1.06	0.94;
	108	1	0.0	0.0	0.0	0.0	1	1.0	0.0	220.0	1	1.06	0.94;
	109	1	35.0	10.0	0.0	0.0	1	1.0	0.0	220.0	1	1.06	0.94;
	110	1	15.0	4.0	0.0	0.0	1	1.0	0.0	220.0	1	1.06	0.94;
	111	1	16.0	4.0	0.0	0.0	1	1.0	0.0	220.0	1	1.06	0.94;
	112	1	0.0	0.0	0.0	0.0	1	1.0	0.0	220.0	1	1.06	0.94;
	113	2	0.0	0.0	0.0	0.0	1	1.0	0.0	380.0	1	1.06	0.94;
	114	2	0.0	0.0	0.0	0.0	1	1.0	0.0	220.0	1	1.06	0.94;
	115	1	0.0	0.0	0.0	0.0	1	1.0	0.0	220.0	1	1.06	0.94;
	116	1	12.0	3.0	0.0	0.0	1	1.0	0.0	220.0	1	1.06	0.94;
	117	1	41.0	13.0	0.0	0.0	1	1.0	0.0	220.0	1	1.06	0.94;
	118	1	23.0	7.0	0.0	0.0	1	1.0	0.0	220.0	1	1.06	0.94;
	119	1	17.0	5.0	0.0	0.0	1	1.0	0.0	220.0	1	1.06	0.94;
	120	1	0.0	0.0	0.0	0.0	1	1.0	0.0	220.0	1	1.06	0.94;
	121	2	16.0	4.0	0.0	0.0	1	1.0	0.0	220.0	1	1.06	0.94;
	122	1	0.0	0.0	0.0	0.0	1	1.0	0.0	220.0	1	1.06	0.94;
	123	1	38.0	15.0	0.0	0.0	1	1.0	0.0	220.0	1	1.06	0.94;
	124	1	11.0	4.0	0.0	0.0	1	1.0	0.0	220.0	1	1.06	0.94;
	125	1	0.0	0.0	0.0	0.0	1	1.0	0.0	220.0	1	1.06	0.94;
	126	1	44.0	12.0	0.0	0.0	1	1.0	0.0	220.0	1	1.06	0.94;
	127	1	0.0	0.0	0.0	0.0	1	1.0	0.0	220.0	1	1.06	0.94;
	128	2	0.0	0.0	0.0	0.0	1	1.0	0.0	380.0	1	1.06	0.94;
	129	2	72.0	25.0	0.0	20.0	1	1.0	0.0	220.0	1	1.06	0.94;
	130	1	17.0	5.0	0.0	0.0	1	1.0	0.0	220.0	1	1.06	0.94;
	131	1	15.0	4.0	0.0	0.0	1	1.0	0.0	220.0	1	1.06	0.94;
	132	1	24.0	8.0	0.0	0.0	1	1.0	0.0	220.0	1	1.06	0.94;
	133	1	0.0	0.0	0.0	0.0	1	1.0	0.0	220.0	1	1.06	0.94;
	134	1	13.0	4.0	0.0	0.0	1	1.0	0.0	220.0	1	1.06	0.94;
	135	1	0.0	0.0	0.0	0.0	1	1.0	0.0	220.0	1	1.06	0.94;
	136	2	0.0	0.0	0.0	0.0	1	1.0	0.0	220.0	1	1.06	0.94;
	137	1	0.0	0.0	0.0	0.0	1	1.0	0.0	220.0	1	1.06	0.94;
	138	1	21.0	8.0	0.0	0.0	1	1.0	0.0	220.0	1	1.06	0.94;
	139	1	60.0	17.0	0.0	20.0	1	1.0	0.0	220.0	1	1.06	0.94;
	140	1	32.0	9.0	0.0	0.0	1	1.0	0.0	220.0	1	1.06	0.94;
	141	1	0.0	0.0	0.0	0.0	1	1.0	0.0	220.0	1	1.06	0.94;
	142	1	22.0	7.0	0.0	0.0	1	1.0	0.0	220.0	1	1.06	0.94;
	143	2	0.0	0.0	0.0	0.0	1	1.0	0.0	380.0	1	1.06	0.94;
	144	2	12.0	3.0	0.0	0.0	1	1.0	0.0	220.0	1	1.06	0.94;
	145	1	0.0	0.0	0.0	0.0	1	1.0	0.0	220.0	1	1.06	0.94;
	146	1	20.0	7.0	0.0	0.0	1	1.0	0.0	220.0	1	1.06	0.94;
	147	1	0.0	0.0	0.0	0.0	1	1.0	0.0	220.0	1	1.06	0.94;
	148	1	0.0	0.0	0.0	0.0	1	1.0	0.0	220.0	1	1.06	0.94;
	149	1	59.0	19.0	0.0	30.0	1	1.0	0.0	220.0	1	1.06	0.94;
	150	1	16.0	5.0	0.0	0.0	1	1.0	0.0	220.0	1	1.06	0.94;
	151	2	0.0	0.0	0.0	0.0	1	1.0	0.0	220.0	1	1.06	0.94;
	152	1	14.0	4.0	0.0	0.0	1	1.0	0.0	220.0	1	1.06	0.94;
	153	1	11.0	4.0	0.0	0.0	1	1.0	0.0	220.0	1	1.06	0.94;
	154	1	6.0	2.0	0.0	0.0	1	1.0	0.0	220.0	1	1.06	0.94;
	155	1	0.0	0.0	0.0	0.0	1	1.0	0.0	220.0	1	1.06	0.94;
	156	1	37.0	12.0	0.0	0.0	1	1.0	0.0	220.0	1	1.06	0.94;
	157	1	76.0	27.0	0.0	25.0	1	1.0	0.0	220.0	1	1.06	0.94;
	158	2	0.0	0.0	0.0	0.0	1	1.0	0.0	380.0	1	1.06	0.94;
	159	2	0.0	0.0	0.0	0.0	1	1.0	0.0	220.0	1	1.06	0.94;
	160	1	79.0	32.0	0.0	25.0	1	1.0	0.0	220.0	1	1.06	0.94;
	161	1	24.0	9.0	0.0	0.0	1	1.0	0.0	220.0	1	1.06	0.94;
	162	1	37.0	14.0	0.0	0.0	1	1.0	0.0	220.0	1	1.06	0.94;
	163	1	51.0	18.0	0.0	0.0	1	1.0	0.0	220.0	1	1.06	0.94;
	164	1	16.0	6.0	0.0	0.0	1	1.0	0.0	220.0	1	1.06	0.94;
	165	1	27.0	8.0	0.0	0.0	1	1.0	0.0	220.0	1	1.06	0.94;
	166	2	21.0	6.0	0.0	0.0	1	1.0	0.0	220.0	1	1.06	0.94;
	167	1	10.0	4.0	0.0	0.0	1	1.0	0.0	220.0	1	1.06	0.94;
	168	1	36.0	13.0	0.0	0.0	1	1.0	0.0	220.0	1	1.06	0.94;
	169	1	89.0	29.0	0.0	20.0	1	1.0	0.0	220.0	1	1.06	0.94;
	170	1	0.0	0.0	0.0	0.0	1	1.0	0.0	220.0	1	1.06	0.94;
	171	1	0.0	0.0	0.0	0.0	1	1.0	0.0	220.0	1	1.06	0.94;
	172	1	41.0	11.0	0.0	0.0	1	1.0	0.0	220.0	1	1.06	0.94;
	173	2	0.0	0.0	0.0	0.0	1	1.0	0.0	380.0	1	1.06	0.94;
	174	2	53.0	18.0	0.0	0.0	1	1.0	0.0	220.0	1	1.06	0.94;
	175	1	44.0	17.0	0.0	0.0	1	1.0	0.0	220.0	1	1.06	0.94;
	176	1	8.0	3.0	0.0	0.0	1	1.0	0.0	220.0	1	1.06	0.94;
	177	1	35.0	14.0	0.0	0.0	1	1.0	0.0	220.0	1	1.06	0.94;
	178	1	0.0	0.0	0.0	0.0	1	1.0	0.0	220.0	1	1.06	0.94;
	179	1	0.0	0.0	0.0	0.0	1	1.0	0.0	220.0	1	1.06	0.94;
	180	1	110.0	36.0	0.0	25.0	1	1.0	0.0	220.0	1	1.06	0.94;
	181	2	0.0	0.0	0.0	0.0	1	1.0	0.0	220.0	1	1.06	0.94;
	182	1	0.0	0.0	0.0	0.0	1	1.0	0.0	220.0	1	1.06	0.94;
	183	1	53.0	17.0	0.0	0.0	1	1.0	0.0	220.0	1	1.06	0.94;
	184	1	0.0	0.0	0.0	0.0	1	1.0	0.0	220.0	1	1.06	0.94;
	185	1	25.0	7.0	0.0	0.0	1	1.0	0.0	220.0	1	1.06	0.94;
	186	1	123.0	33.0	0.0	30.0	1	1.0	0.0	220.0	1	1.06	0.94;
	187	1	0.0	0.0	0.0	0.0	1	1.0	0.0	220.0	1	1.06	0.94;
	188	2	0.0	0.0	0.0	0.0	1	1.0	0.0	380.0	1	1.06	0.94;
	189	2	44.0	17.0	0.0	0.0	1	1.0	0.0	220.0	1	1.06	0.94;
	190	1	12.0	3.0	0.0	0.0	1	1.0	0.0	220.0	1	1.06	0.94;
	191	1	16.0	6.0	0.0	0.0	1	1.0	0.0	220.0	1	1.06	0.94;
	192	1	38.0	11.0	0.0	0.0	1	1.0	0.0	220.0	1	1.06	0.94;
	193	1	25.0	9.0	0.0	0.0	1	1.0	0.0	220.0	1	1.06	0.94;
	194	1	37.0	12.0	0.0	0.0	1	1.0	0.0	220.0	1	1.06	0.94;
	195	1	51.0	17.0	0.0	0.0	1	1.0	0.0	220.0	1	1.06	0.94;
	196	2	28.0	9.0	0.0	0.0	1	1.0	0.0	220.0	1	1.06	0.94;
	197	1	29.0	10.0	0.0	0.0	1	1.0	0.0	220.0	1	1.06	0.94;
	198	1	49.0	14.0	0.0	0.0	1	1.0	0.0	220.0	1	1.06	0.94;
	199	1	48.0	14.0	0.0	0.0	1	1.0	0.0	220.0	1	1.06	0.94;
	200	1	39.0	11.0	0.0	0.0	1	1.0	0.0	220.0	1	1.06	0.94;
...
];

%% generator data
%	bus	Pg	Qg	Qmax	Qmin	Vg	mBase	status	Pmax	Pmin
mpc.gen = [
	1	104.0	0.0	10.0	-15.0	1.0	100.0	1	140.0	0.0;
	8	187.0	0.0	70.0	-20.0	1.015	100.0	1	240.0	0.0;
	9	39.0	0.0	60.0	-35.0	1.015	100.0	1	50.0	0.0;
	16	65.0	0.0	25.0	-145.0	1.015	100.0	1	80.0	0.0;
	23	187.0	0.0	155.0	-80.0	1.02	100.0	1	240.0	0.0;
	24	58.0	0.0	165.0	-20.0	1.01	100.0	1	80.0	0.0;
	31	74.0	0.0	130.0	-20.0	1.005	100.0	1	100.0	0.0;
	38	187.0	0.0	70.0	-530.0	1.005	100.0	1	240.0	0.0;
	39	57.0	0.0	295.0	-20.0	1.0	100.0	1	70.0	0.0;
	46	101.0	0.0	65.0	-20.0	1.015	100.0	1	130.0	0.0;
	53	187.0	0.0	520.0	-20.0	1.015	100.0	1	240.0	0.0;
	54	52.0	0.0	195.0	-20.0	1.005	100.0	1	70.0	0.0;
	61	79.0	0.0	45.0	-25.0	1.015	100.0	1	100.0	0.0;
	68	187.0	0.0	375.0	-20.0	1.02	100.0	1	240.0	0.0;
	69	90.0	0.0	35.0	-90.0	1.01	100.0	1	120.0	0.0;
	76	56.0	0.0	185.0	-20.0	1.005	100.0	1	70.0	0.0;
	83	187.0	0.0	70.0	-665.0	1.0	100.0	1	240.0	0.0;
	84	65.0	0.0	510.0	-20.0	1.005	100.0	1	80.0	0.0;
	91	79.0	0.0	315.0	-20.0	1.015	100.0	1	100.0	0.0;
	98	187.0	0.0	240.0	-130.0	1.02	100.0	1	240.0	0.0;
	99	50.0	0.0	20.0	-130.0	1.0	100.0	1	60.0	0.0;
	106	71.0	0.0	25.0	-220.0	1.02	100.0	1	90.0	0.0;
	113	187.0	0.0	315.0	-20.0	1.02	100.0	1	240.0	0.0;
	114	85.0	0.0	90.0	-20.0	1.01	100.0	1	110.0	0.0;
	121	85.0	0.0	35.0	-260.0	1.015	100.0	1	110.0	0.0;
	128	187.0	0.0	70.0	-375.0	1.01	100.0	1	240.0	0.0;
	129	63.0	0.0	445.0	-20.0	1.0	100.0	1	80.0	0.0;
	136	65.0	0.0	335.0	-20.0	1.015	100.0	1	80.0	0.0;
	143	187.0	0.0	250.0	-20.0	1.02	100.0	1	240.0	0.0;
	144	95.0	0.0	35.0	-425.0	1.005	100.0	1	120.0	0.0;
	151	51.0	0.0	210.0	-20.0	1.0	100.0	1	70.0	0.0;
	158	187.0	0.0	70.0	-20.0	1.015	100.0	1	240.0	0.0;
	159	92.0	0.0	15.0	-25.0	1.01	100.0	1	120.0	0.0;
	166	82.0	0.0	300.0	-20.0	1.02	100.0	1	110.0	0.0;
	173	187.0	0.0	70.0	-240.0	1.015	100.0	1	240.0	0.0;
	174	103.0	0.0	185.0	-20.0	1.015	100.0	1	130.0	0.0;
	181	89.0	0.0	285.0	-20.0	1.02	100.0	1	120.0	0.0;
	188	187.0	0.0	505.0	-20.0	1.02	100.0	1	240.0	0.0;
	189	80.0	0.0	185.0	-20.0	1.0	100.0	1	100.0	0.0;
	196	82.0	0.0	35.0	-470.0	1.0	100.0	1	110.0	0.0;
	203	187.0	0.0	70.0	-315.0	1.01	100.0	1	240.0	0.0;
	204	38.0	0.0	310.0	-20.0	1.01	100.0	1	50.0	0.0;
	211	39.0	0.0	30.0	-20.0	1.01	100.0	1	50.0	0.0;
	218	187.0	0.0	185.0	-20.0	1.02	100.0	1	240.0	0.0;
	219	100.0	0.0	80.0	-20.0	1.015	100.0	1	130.0	0.0;
	226	99.0	0.0	35.0	-65.0	1.0	100.0	1	130.0	0.0;
	233	197.0	0.0	10.0	-10.0	1.015	100.0	1	260.0	0.0;
	234	44.0	0.0	155.0	-20.0	1.01	100.0	1	60.0	0.0;
	241	122.0	0.0	815.0	-20.0	1.02	100.0	1	160.0	0.0;
	248	197.0	0.0	80.0	-75.0	1.015	100.0	1	260.0	0.0;
	249	121.0	0.0	50.0	-380.0	1.005	100.0	1	160.0	0.0;
	256	66.0	0.0	25.0	-95.0	1.0	100.0	1	90.0	0.0;
	263	197.0	0.0	400.0	-20.0	1.015	100.0	1	260.0	0.0;
	264	77.0	0.0	90.0	-20.0	1.005	100.0	1	100.0	0.0;
	271	100.0	0.0	40.0	-165.0	1.01	100.0	1	130.0	0.0;
	278	197.0	0.0	125.0	-20.0	1.015	100.0	1	260.0	0.0;
	279	111.0	0.0	40.0	-260.0	1.005	100.0	1	140.0	0.0;
	286	108.0	0.0	525.0	-20.0	1.015	100.0	1	140.0	0.0;
	293	197.0	0.0	80.0	-150.0	1.015	100.0	1	260.0	0.0;
	294	80.0	0.0	30.0	-125.0	1.0	100.0	1	100.0	0.0;
	301	69.0	0.0	25.0	-190.0	1.005	100.0	1	90.0	0.0;
	308	197.0	0.0	480.0	-20.0	1.02	100.0	1	260.0	0.0;
	309	44.0	0.0	160.0	-20.0	1.01	100.0	1	60.0	0.0;
	316	71.0	0.0	35.0	-65.0	1.005	100.0	1	90.0	0.0;
	323	197.0	0.0	80.0	-300.0	1.015	100.0	1	260.0	0.0;
	324	106.0	0.0	35.0	-70.0	1.005	100.0	1	140.0	0.0;
	331	104.0	0.0	40.0	-60.0	1.01	100.0	1	140.0	0.0;
	338	197.0	0.0	105.0	-20.0	1.02	100.0	1	260.0	0.0;
	339	101.0	0.0	175.0	-95.0	1.015	100.0	1	130.0	0.0;
	346	123.0	0.0	305.0	-20.0	1.02	100.0	1	160.0	0.0;
	353	106.0	0.0	360.0	-20.0	1.01	100.0	1	140.0	0.0;
	354	197.0	0.0	205.0	-20.0	1.02	100.0	1	260.0	0.0;
	361	39.0	0.0	20.0	-125.0	1.02	100.0	1	50.0	0.0;
	368	111.0	0.0	95.0	-50.0	1.01	100.0	1	140.0	0.0;
	369	197.0	0.0	80.0	-275.0	1.005	100.0	1	260.0	0.0;
	376	64.0	0.0	140.0	-20.0	1.015	100.0	1	80.0	0.0;
	383	46.0	0.0	20.0	-300.0	1.01	100.0	1	60.0	0.0;
	384	197.0	0.0	80.0	-20.0	1.01	100.0	1	260.0	0.0;
	391	62.0	0.0	215.0	-115.0	1.02	100.0	1	80.0	0.0;
	398	104.0	0.0	40.0	-570.0	1.005	100.0	1	140.0	0.0;
	399	197.0	0.0	80.0	-25.0	1.01	100.0	1	260.0	0.0;
	406	118.0	0.0	45.0	-230.0	1.0	100.0	1	150.0	0.0;
	413	37.0	0.0	20.0	-895.0	1.0	100.0	1	50.0	0.0;
	414	197.0	0.0	395.0	-20.0	1.01	100.0	1	260.0	0.0;
	421	45.0	0.0	320.0	-20.0	1.005	100.0	1	60.0	0.0;
	428	53.0	0.0	570.0	-20.0	1.015	100.0	1	70.0	0.0;
	429	197.0	0.0	65.0	-35.0	1.01	100.0	1	260.0	0.0;
	436	106.0	0.0	850.0	-20.0	1.02	100.0	1	140.0	0.0;
	443	38.0	0.0	445.0	-20.0	1.015	100.0	1	50.0	0.0;
	444	197.0	0.0	145.0	-270.0	1.0	100.0	1	260.0	0.0;
	451	40.0	0.0	455.0	-20.0	1.02	100.0	1	50.0	0.0;
	458	79.0	0.0	30.0	-35.0	1.005	100.0	1	100.0	0.0;
	459	204.0	0.0	80.0	-45.0	1.005	100.0	1	270.0	0.0;
	466	44.0	0.0	20.0	-280.0	1.01	100.0	1	60.0	0.0;
	473	50.0	0.0	20.0	-580.0	1.005	100.0	1	60.0	0.0;
	474	204.0	0.0	210.0	-115.0	1.02	100.0	1	270.0	0.0;
	481	59.0	0.0	25.0	-910.0	1.005	100.0	1	80.0	0.0;
	488	121.0	0.0	50.0	-215.0	1.0	100.0	1	160.0	0.0;
	489	204.0	0.0	75.0	-40.0	1.01	100.0	1	270.0	0.0;
	496	54.0	0.0	1095.0	-20.0	1.02	100.0	1	70.0	0.0;
	503	91.0	0.0	280.0	-20.0	1.0	100.0	1	120.0	0.0;
	504	204.0	0.0	100.0	-20.0	1.01	100.0	1	270.0	0.0;
	511	62.0	0.0	240.0	-20.0	1.0	100.0	1	80.0	0.0;
	518	75.0	0.0	30.0	-720.0	1.01	100.0	1	100.0	0.0;
	519	204.0	0.0	95.0	-20.0	1.01	100.0	1	270.0	0.0;
	526	132.0	0.0	530.0	-20.0	1.02	100.0	1	170.0	0.0;
	533	83.0	0.0	660.0	-20.0	1.02	100.0	1	110.0	0.0;
	534	204.0	0.0	80.0	-590.0	1.0	100.0	1	270.0	0.0;
	541	76.0	0.0	65.0	-20.0	1.015	100.0	1	100.0	0.0;
	548	103.0	0.0	20.0	-40.0	1.02	100.0	1	130.0	0.0;
	549	204.0	0.0	325.0	-20.0	1.01	100.0	1	270.0	0.0;
	556	97.0	0.0	910.0	-20.0	1.02	100.0	1	130.0	0.0;
	563	81.0	0.0	180.0	-20.0	1.02	100.0	1	110.0	0.0;
	564	204.0	0.0	80.0	-85.0	1.0	100.0	1	270.0	0.0;
	571	133.0	0.0	290.0	-20.0	1.015	100.0	1	170.0	0.0;
	578	115.0	0.0	245.0	-20.0	1.02	100.0	1	150.0	0.0;
	579	204.0	0.0	80.0	-290.0	1.005	100.0	1	270.0	0.0;
	586	63.0	0.0	345.0	-20.0	1.01	100.0	1	80.0	0.0;
	593	51.0	0.0	535.0	-20.0	1.015	100.0	1	70.0	0.0;
	594	204.0	0.0	300.0	-160.0	1.02	100.0	1	270.0	0.0;
	601	97.0	0.0	40.0	-575.0	1.005	100.0	1	130.0	0.0;
	608	80.0	0.0	30.0	-55.0	1.01	100.0	1	100.0	0.0;
	609	204.0	0.0	80.0	-490.0	1.0	100.0	1	270.0	0.0;
	616	61.0	0.0	215.0	-115.0	1.015	100.0	1	80.0	0.0;
	623	91.0	0.0	35.0	-20.0	1.005	100.0	1	120.0	0.0;
	624	204.0	0.0	355.0	-20.0	1.02	100.0	1	270.0	0.0;
	631	96.0	0.0	35.0	-295.0	1.005	100.0	1	120.0	0.0;
	638	43.0	0.0	205.0	-110.0	1.015	100.0	1	60.0	0.0;
	639	204.0	0.0	80.0	-60.0	1.015	100.0	1	270.0	0.0;
	646	60.0	0.0	25.0	-190.0	1.015	100.0	1	80.0	0.0;
	653	121.0	0.0	150.0	-20.0	1.01	100.0	1	160.0	0.0;
	654	204.0	0.0	80.0	-445.0	1.005	100.0	1	270.0	0.0;
	661	126.0	0.0	210.0	-20.0	1.01	100.0	1	160.0	0.0;
	668	82.0	0.0	35.0	-25.0	1.02	100.0	1	110.0	0.0;
	669	204.0	0.0	485.0	-20.0	1.02	100.0	1	270.0	0.0;
	676	75.0	0.0	60.0	-20.0	1.02	100.0	1	100.0	0.0;
	683	60.0	0.0	215.0	-20.0	1.01	100.0	1	80.0	0.0;
	685	881.0	0.0	9999.0	-9999.0	1.01	100.0	1	2380	0.0;
	691	41.0	0.0	20.0	-140.0	1.0	100.0	1	50.0	0.0;
	698	96.0	0.0	35.0	-170.0	1.005	100.0	1	120.0	0.0;
	700	180.0	0.0	70.0	-475.0	1.0	100.0	1	230.0	0.0;
	706	75.0	0.0	55.0	-20.0	1.0	100.0	1	100.0	0.0;
	713	47.0	0.0	40.0	-20.0	1.0	100.0	1	60.0	0.0;
	715	180.0	0.0	710.0	-20.0	1.015	100.0	1	230.0	0.0;
	721	71.0	0.0	130.0	-20.0	1.005	100.0	1	90.0	0.0;
	728	62.0	0.0	130.0	-20.0	1.01	100.0	1	80.0	0.0;
	730	180.0	0.0	70.0	-295.0	1.01	100.0	1	230.0	0.0;
	736	47.0	0.0	145.0	-20.0	1.005	100.0	1	60.0	0.0;
	743	69.0	0.0	220.0	-20.0	1.005	100.0	1	90.0	0.0;
	745	180.0	0.0	135.0	-20.0	1.015	100.0	1	230.0	0.0;
	751	77.0	0.0	290.0	-20.0	1.01	100.0	1	100.0	0.0;
	758	95.0	0.0	200.0	-20.0	1.005	100.0	1	120.0	0.0;
	760	180.0	0.0	70.0	-80.0	1.015	100.0	1	230.0	0.0;
	766	79.0	0.0	30.0	-20.0	1.0	100.0	1	100.0	0.0;
	773	66.0	0.0	60.0	-30.0	1.005	100.0	1	90.0	0.0;
	775	180.0	0.0	175.0	-20.0	1.02	100.0	1	230.0	0.0;
	781	65.0	0.0	140.0	-20.0	1.005	100.0	1	80.0	0.0;
	788	52.0	0.0	225.0	-20.0	1.02	100.0	1	70.0	0.0;
	790	180.0	0.0	70.0	-310.0	1.01	100.0	1	230.0	0.0;
	796	91.0	0.0	350.0	-185.0	1.02	100.0	1	120.0	0.0;
	803	90.0	0.0	210.0	-20.0	1.015	100.0	1	120.0	0.0;
	805	180.0	0.0	295.0	-20.0	1.02	100.0	1	230.0	0.0;
	811	93.0	0.0	35.0	-50.0	1.015	100.0	1	120.0	0.0;
	818	103.0	0.0	200.0	-20.0	1.0	100.0	1	130.0	0.0;
	820	180.0	0.0	70.0	-180.0	1.01	100.0	1	230.0	0.0;
	826	97.0	0.0	300.0	-20.0	1.005	100.0	1	130.0	0.0;
	833	77.0	0.0	30.0	-40.0	1.005	100.0	1	100.0	0.0;
	835	180.0	0.0	375.0	-20.0	1.02	100.0	1	230.0	0.0;
	841	99.0	0.0	135.0	-20.0	1.01	100.0	1	130.0	0.0;
	848	67.0	0.0	25.0	-420.0	1.0	100.0	1	90.0	0.0;
	850	180.0	0.0	245.0	-20.0	1.02	100.0	1	230.0	0.0;
	856	84.0	0.0	780.0	-20.0	1.02	100.0	1	110.0	0.0;
	863	52.0	0.0	25.0	-20.0	1.015	100.0	1	70.0	0.0;
	865	180.0	0.0	70.0	-505.0	1.01	100.0	1	230.0	0.0;
	871	61.0	0.0	15.0	-30.0	1.005	100.0	1	80.0	0.0;
	878	75.0	0.0	30.0	-520.0	1.005	100.0	1	100.0	0.0;
	880	180.0	0.0	115.0	-20.0	1.02	100.0	1	230.0	0.0;
	886	57.0	0.0	150.0	-20.0	1.005	100.0	1	70.0	0.0;
	893	102.0	0.0	200.0	-20.0	1.0	100.0	1	130.0	0.0;
	895	180.0	0.0	375.0	-20.0	1.02	100.0	1	230.0	0.0;
	901	56.0	0.0	20.0	-185.0	1.005	100.0	1	70.0	0.0;
	908	73.0	0.0	230.0	-20.0	1.015	100.0	1	90.0	0.0;
	910	193.0	0.0	150.0	-285.0	1.005	100.0	1	250.0	0.0;
	916	123.0	0.0	50.0	-175.0	1.005	100.0	1	160.0	0.0;
	923	69.0	0.0	295.0	-20.0	1.02	100.0	1	90.0	0.0;
	925	193.0	0.0	300.0	-20.0	1.02	100.0	1	250.0	0.0;
	931	80.0	0.0	30.0	-325.0	1.005	100.0	1	100.0	0.0;
	938	75.0	0.0	30.0	-305.0	1.0	100.0	1	100.0	0.0;
	940	193.0	0.0	425.0	-20.0	1.015	100.0	1	250.0	0.0;
	946	64.0	0.0	25.0	-240.0	1.0	100.0	1	80.0	0.0;
	953	69.0	0.0	280.0	-20.0	1.015	100.0	1	90.0	0.0;
	955	193.0	0.0	210.0	-390.0	1.0	100.0	1	250.0	0.0;
	961	80.0	0.0	625.0	-20.0	1.015	100.0	1	100.0	0.0;
	968	67.0	0.0	475.0	-20.0	1.015	100.0	1	90.0	0.0;
	970	193.0	0.0	75.0	-85.0	1.01	100.0	1	250.0	0.0;
	976	127.0	0.0	225.0	-20.0	1.0	100.0	1	170.0	0.0;
	983	89.0	0.0	35.0	-835.0	1.0	100.0	1	120.0	0.0;
	985	193.0	0.0	720.0	-20.0	1.02	100.0	1	250.0	0.0;
	991	101.0	0.0	10.0	-10.0	1.015	100.0	1	130.0	0.0;
	998	60.0	0.0	350.0	-20.0	1.01	100.0	1	80.0	0.0;
...
];

%% branch data
%	fbus	tbus	r	x	b	rateA	rateB	rateC	ratio	angle	status	angmin	angmax
mpc.branch = [
	1	4	0.001187	0.003858	0.00672	150.0	150.0	150.0	0.0	0.0	1	-360.0	360.0;
	1	93	0.001618	0.005257	0.00916	600.0	600.0	600.0	0.0	0.0	1	-360.0	360.0;
	2	12	0.00128	0.004161	0.00725	150.0	150.0	150.0	0.0	0.0	1	-360.0	360.0;
	2	136	0.001386	0.004505	0.00785	150.0	150.0	150.0	0.0	0.0	1	-360.0	360.0;
	3	87	0.00123	0.003996	0.00696	200.0	200.0	200.0	0.0	0.0	1	-360.0	360.0;
	3	166	0.002045	0.006647	0.01158	500.0	500.0	500.0	0.0	0.0	1	-360.0	360.0;
	4	14	0.001337	0.004347	0.00757	250.0	250.0	250.0	0.0	0.0	1	-360.0	360.0;
	4	225	0.001167	0.003792	0.00661	250.0	250.0	250.0	0.0	0.0	1	-360.0	360.0;
	5	76	0.001289	0.004188	0.0073	150.0	150.0	150.0	0.0	0.0	1	-360.0	360.0;
	5	116	0.001268	0.004121	0.00718	150.0	150.0	150.0	0.0	0.0	1	-360.0	360.0;
	5	155	0.001565	0.005087	0.00886	150.0	150.0	150.0	0.0	0.0	1	-360.0	360.0;
	6	29	0.001566	0.005089	0.00886	300.0	300.0	300.0	0.0	0.0	1	-360.0	360.0;
	6	139	0.001337	0.004347	0.00757	200.0	200.0	200.0	0.0	0.0	1	-360.0	360.0;
	7	163	0.001597	0.00519	0.00904	150.0	150.0	150.0	0.0	0.0	1	-360.0	360.0;
	9	70	0.001564	0.005082	0.00885	300.0	300.0	300.0	0.0	0.0	1	-360.0	360.0;
	9	88	0.001725	0.005607	0.00977	300.0	300.0	300.0	0.0	0.0	1	-360.0	360.0;
	10	118	0.001372	0.004459	0.00777	150.0	150.0	150.0	0.0	0.0	1	-360.0	360.0;
	10	189	0.001578	0.005128	0.00893	150.0	150.0	150.0	0.0	0.0	1	-360.0	360.0;
	11	105	0.001469	0.004774	0.00832	250.0	250.0	250.0	0.0	0.0	1	-360.0	360.0;
	11	186	0.001271	0.00413	0.00719	150.0	150.0	150.0	0.0	0.0	1	-360.0	360.0;
	12	24	0.001497	0.004866	0.00848	150.0	150.0	150.0	0.0	0.0	1	-360.0	360.0;
	12	144	0.001448	0.004707	0.0082	150.0	150.0	150.0	0.0	0.0	1	-360.0	360.0;
	13	120	0.001145	0.003723	0.00648	200.0	200.0	200.0	0.0	0.0	1	-360.0	360.0;
	13	159	0.001528	0.004964	0.00865	150.0	150.0	150.0	0.0	0.0	1	-360.0	360.0;
	13	217	0.001536	0.00499	0.00869	150.0	150.0	150.0	0.0	0.0	1	-360.0	360.0;
	14	142	0.001733	0.005633	0.00981	200.0	200.0	200.0	0.0	0.0	1	-360.0	360.0;
	15	182	0.001658	0.005388	0.00939	250.0	250.0	250.0	0.0	0.0	1	-360.0	360.0;
	15	191	0.001628	0.005289	0.00921	150.0	150.0	150.0	0.0	0.0	1	-360.0	360.0;
	16	154	0.00159	0.005167	0.009	150.0	150.0	150.0	0.0	0.0	1	-360.0	360.0;
	16	156	0.001149	0.003733	0.0065	250.0	250.0	250.0	0.0	0.0	1	-360.0	360.0;
	17	94	0.001545	0.005021	0.00875	500.0	500.0	500.0	0.0	0.0	1	-360.0	360.0;
	17	126	0.001555	0.005054	0.0088	1500.0	1500.0	1500.0	0.0	0.0	1	-360.0	360.0;
	17	199	0.002073	0.006737	0.01173	200.0	200.0	200.0	0.0	0.0	1	-360.0	360.0;
	18	96	0.001049	0.003408	0.00594	150.0	150.0	150.0	0.0	0.0	1	-360.0	360.0;
	18	144	0.001202	0.003908	0.00681	150.0	150.0	150.0	0.0	0.0	1	-360.0	360.0;
	19	117	0.001232	0.004004	0.00697	600.0	600.0	600.0	0.0	0.0	1	-360.0	360.0;
	19	130	0.001582	0.005142	0.00896	400.0	400.0	400.0	0.0	0.0	1	-360.0	360.0;
	20	107	0.001492	0.004849	0.00845	1000.0	1000.0	1000.0	0.0	0.0	1	-360.0	360.0;
	20	168	0.001776	0.005771	0.01005	1000.0	1000.0	1000.0	0.0	0.0	1	-360.0	360.0;
	20	181	0.001996	0.006486	0.0113	300.0	300.0	300.0	0.0	0.0	1	-360.0	360.0;
	21	135	0.002149	0.006984	0.01217	300.0	300.0	300.0	0.0	0.0	1	-360.0	360.0;
	22	198	0.001362	0.004426	0.00771	150.0	150.0	150.0	0.0	0.0	1	-360.0	360.0;
	22	220	0.001222	0.00397	0.00692	300.0	300.0	300.0	0.0	0.0	1	-360.0	360.0;
	24	59	0.001457	0.004735	0.00825	150.0	150.0	150.0	0.0	0.0	1	-360.0	360.0;
	25	34	0.001425	0.004632	0.00807	800.0	800.0	800.0	0.0	0.0	1	-360.0	360.0;
	25	48	0.001903	0.006186	0.01078	500.0	500.0	500.0	0.0	0.0	1	-360.0	360.0;
	26	50	0.001444	0.004691	0.00817	150.0	150.0	150.0	0.0	0.0	1	-360.0	360.0;
	26	82	0.001122	0.003646	0.00635	150.0	150.0	150.0	0.0	0.0	1	-360.0	360.0;
	27	33	0.001213	0.003943	0.00687	150.0	150.0	150.0	0.0	0.0	1	-360.0	360.0;
	27	111	0.001489	0.004839	0.00843	200.0	200.0	200.0	0.0	0.0	1	-360.0	360.0;
	27	208	0.001426	0.004633	0.00807	150.0	150.0	150.0	0.0	0.0	1	-360.0	360.0;
	28	42	0.00166	0.005396	0.0094	150.0	150.0	150.0	0.0	0.0	1	-360.0	360.0;
	28	66	0.00165	0.005362	0.00934	300.0	300.0	300.0	0.0	0.0	1	-360.0	360.0;
	29	214	0.001469	0.004774	0.00832	600.0	600.0	600.0	0.0	0.0	1	-360.0	360.0;
	30	50	0.001249	0.004059	0.00707	150.0	150.0	150.0	0.0	0.0	1	-360.0	360.0;
	30	52	0.001316	0.004277	0.00745	150.0	150.0	150.0	0.0	0.0	1	-360.0	360.0;
	31	105	0.00131	0.004259	0.00742	150.0	150.0	150.0	0.0	0.0	1	-360.0	360.0;
	32	76	0.001455	0.004729	0.00824	150.0	150.0	150.0	0.0	0.0	1	-360.0	360.0;
	32	192	0.001171	0.003806	0.00663	150.0	150.0	150.0	0.0	0.0	1	-360.0	360.0;
	33	147	0.001282	0.004166	0.00726	150.0	150.0	150.0	0.0	0.0	1	-360.0	360.0;
	34	171	0.001812	0.005888	0.01026	400.0	400.0	400.0	0.0	0.0	1	-360.0	360.0;
	35	61	0.001579	0.005132	0.00894	250.0	250.0	250.0	0.0	0.0	1	-360.0	360.0;
	35	212	0.001712	0.005564	0.00969	250.0	250.0	250.0	0.0	0.0	1	-360.0	360.0;
	36	58	0.001556	0.005057	0.00881	150.0	150.0	150.0	0.0	0.0	1	-360.0	360.0;
	36	70	0.001584	0.005148	0.00897	250.0	250.0	250.0	0.0	0.0	1	-360.0	360.0;
	36	114	0.001445	0.004696	0.00818	150.0	150.0	150.0	0.0	0.0	1	-360.0	360.0;
	36	125	0.001746	0.005675	0.00988	500.0	500.0	500.0	0.0	0.0	1	-360.0	360.0;
	37	138	0.001078	0.003503	0.0061	150.0	150.0	150.0	0.0	0.0	1	-360.0	360.0;
	37	148	0.001639	0.005327	0.00928	150.0	150.0	150.0	0.0	0.0	1	-360.0	360.0;
	37	157	0.001775	0.00577	0.01005	150.0	150.0	150.0	0.0	0.0	1	-360.0	360.0;
	39	152	0.001452	0.00472	0.00822	400.0	400.0	400.0	0.0	0.0	1	-360.0	360.0;
	39	198	0.001406	0.004568	0.00796	250.0	250.0	250.0	0.0	0.0	1	-360.0	360.0;
	40	162	0.001505	0.00489	0.00852	800.0	800.0	800.0	0.0	0.0	1	-360.0	360.0;
	40	205	0.00136	0.004419	0.0077	200.0	200.0	200.0	0.0	0.0	1	-360.0	360.0;
	41	93	0.001184	0.003848	0.0067	500.0	500.0	500.0	0.0	0.0	1	-360.0	360.0;
	41	184	0.001341	0.004358	0.00759	150.0	150.0	150.0	0.0	0.0	1	-360.0	360.0;
	42	127	0.001366	0.004441	0.00774	150.0	150.0	150.0	0.0	0.0	1	-360.0	360.0;
	43	172	0.001302	0.004232	0.00737	150.0	150.0	150.0	0.0	0.0	1	-360.0	360.0;
	43	189	0.001336	0.004343	0.00756	150.0	150.0	150.0	0.0	0.0	1	-360.0	360.0;
	44	64	0.001333	0.004331	0.00754	150.0	150.0	150.0	0.0	0.0	1	-360.0	360.0;
	45	149	0.001634	0.005309	0.00925	400.0	400.0	400.0	0.0	0.0	1	-360.0	360.0;
	45	208	0.001342	0.004362	0.0076	150.0	150.0	150.0	0.0	0.0	1	-360.0	360.0;
	46	140	0.001438	0.004673	0.00814	150.0	150.0	150.0	0.0	0.0	1	-360.0	360.0;
	46	185	0.001469	0.004775	0.00832	150.0	150.0	150.0	0.0	0.0	1	-360.0	360.0;
	47	95	0.001366	0.00444	0.00773	800.0	800.0	800.0	0.0	0.0	1	-360.0	360.0;
	47	162	0.00134	0.004355	0.00759	400.0	400.0	400.0	0.0	0.0	1	-360.0	360.0;
	48	177	0.001369	0.00445	0.00775	400.0	400.0	400.0	0.0	0.0	1	-360.0	360.0;
	49	141	0.001348	0.00438	0.00763	150.0	150.0	150.0	0.0	0.0	1	-360.0	360.0;
	51	72	0.001729	0.005619	0.00979	250.0	250.0	250.0	0.0	0.0	1	-360.0	360.0;
	51	220	0.001435	0.004664	0.00812	300.0	300.0	300.0	0.0	0.0	1	-360.0	360.0;
	54	89	0.002	0.006499	0.01132	600.0	600.0	600.0	0.0	0.0	1	-360.0	360.0;
	54	162	0.001908	0.0062	0.0108	1000.0	1000.0	1000.0	0.0	0.0	1	-360.0	360.0;
	55	82	0.001483	0.004821	0.0084	500.0	500.0	500.0	0.0	0.0	1	-360.0	360.0;
	55	202	0.001586	0.005154	0.00898	500.0	500.0	500.0	0.0	0.0	1	-360.0	360.0;
	56	176	0.001396	0.004535	0.0079	150.0	150.0	150.0	0.0	0.0	1	-360.0	360.0;
	57	63	0.00169	0.005493	0.00957	200.0	200.0	200.0	0.0	0.0	1	-360.0	360.0;
	57	129	0.001859	0.00604	0.01052	1500.0	1500.0	1500.0	0.0	0.0	1	-360.0	360.0;
	57	205	0.001487	0.004833	0.00842	800.0	800.0	800.0	0.0	0.0	1	-360.0	360.0;
	59	85	0.001551	0.00504	0.00878	150.0	150.0	150.0	0.0	0.0	1	-360.0	360.0;
	60	72	0.001348	0.004382	0.00763	300.0	300.0	300.0	0.0	0.0	1	-360.0	360.0;
	60	81	0.001674	0.005441	0.00948	400.0	400.0	400.0	0.0	0.0	1	-360.0	360.0;
	61	104	0.001573	0.005111	0.0089	150.0	150.0	150.0	0.0	0.0	1	-360.0	360.0;
	61	137	0.001673	0.005439	0.00947	300.0	300.0	300.0	0.0	0.0	1	-360.0	360.0;
	62	139	0.001187	0.003857	0.00672	200.0	200.0	200.0	0.0	0.0	1	-360.0	360.0;
	63	169	0.001452	0.004718	0.00822	150.0	150.0	150.0	0.0	0.0	1	-360.0	360.0;
	63	191	0.001267	0.004119	0.00718	150.0	150.0	150.0	0.0	0.0	1	-360.0	360.0;
	64	79	0.001451	0.004714	0.00821	150.0	150.0	150.0	0.0	0.0	1	-360.0	360.0;
	64	131	0.001572	0.005109	0.0089	150.0	150.0	150.0	0.0	0.0	1	-360.0	360.0;
	65	110	0.001651	0.005366	0.00935	500.0	500.0	500.0	0.0	0.0	1	-360.0	360.0;
	65	121	0.001734	0.005637	0.00982	250.0	250.0	250.0	0.0	0.0	1	-360.0	360.0;
	66	137	0.001507	0.004899	0.00853	300.0	300.0	300.0	0.0	0.0	1	-360.0	360.0;
	67	146	0.002319	0.007536	0.01313	150.0	150.0	150.0	0.0	0.0	1	-360.0	360.0;
	67	150	0.001977	0.006425	0.01119	150.0	150.0	150.0	0.0	0.0	1	-360.0	360.0;
	69	153	0.00166	0.005394	0.0094	150.0	150.0	150.0	0.0	0.0	1	-360.0	360.0;
	71	80	0.001922	0.006245	0.01088	1500.0	1500.0	1500.0	0.0	0.0	1	-360.0	360.0;
	71	90	0.001718	0.005582	0.00972	600.0	600.0	600.0	0.0	0.0	1	-360.0	360.0;
	71	163	0.001453	0.004722	0.00822	1200.0	1200.0	1200.0	0.0	0.0	1	-360.0	360.0;
	73	79	0.001426	0.004635	0.00807	150.0	150.0	150.0	0.0	0.0	1	-360.0	360.0;
	73	211	0.001091	0.003546	0.00618	150.0	150.0	150.0	0.0	0.0	1	-360.0	360.0;
	74	133	0.001454	0.004726	0.00823	300.0	300.0	300.0	0.0	0.0	1	-360.0	360.0;
	74	166	0.00181	0.005882	0.01025	300.0	300.0	300.0	0.0	0.0	1	-360.0	360.0;
	75	153	0.001744	0.005668	0.00987	400.0	400.0	400.0	0.0	0.0	1	-360.0	360.0;
	75	159	0.001449	0.00471	0.0082	300.0	300.0	300.0	0.0	0.0	1	-360.0	360.0;
	77	164	0.001415	0.004597	0.00801	150.0	150.0	150.0	0.0	0.0	1	-360.0	360.0;
	78	86	0.001554	0.005052	0.0088	150.0	150.0	150.0	0.0	0.0	1	-360.0	360.0;
	80	84	0.001674	0.00544	0.00948	1200.0	1200.0	1200.0	0.0	0.0	1	-360.0	360.0;
	81	108	0.001464	0.004757	0.00829	400.0	400.0	400.0	0.0	0.0	1	-360.0	360.0;
	82	130	0.001418	0.004608	0.00803	150.0	150.0	150.0	0.0	0.0	1	-360.0	360.0;
	84	94	0.001561	0.005074	0.00884	500.0	500.0	500.0	0.0	0.0	1	-360.0	360.0;
	86	101	0.001782	0.005792	0.01009	200.0	200.0	200.0	0.0	0.0	1	-360.0	360.0;
	87	153	0.001254	0.004077	0.0071	250.0	250.0	250.0	0.0	0.0	1	-360.0	360.0;
	87	178	0.001913	0.006218	0.01083	150.0	150.0	150.0	0.0	0.0	1	-360.0	360.0;
	88	134	0.001704	0.005539	0.00965	150.0	150.0	150.0	0.0	0.0	1	-360.0	360.0;
	88	174	0.001537	0.004996	0.0087	250.0	250.0	250.0	0.0	0.0	1	-360.0	360.0;
	89	196	0.001342	0.004362	0.0076	400.0	400.0	400.0	0.0	0.0	1	-360.0	360.0;
	91	132	0.001459	0.004742	0.00826	150.0	150.0	150.0	0.0	0.0	1	-360.0	360.0;
	91	191	0.001485	0.004828	0.00841	150.0	150.0	150.0	0.0	0.0	1	-360.0	360.0;
	92	109	0.001519	0.004938	0.0086	600.0	600.0	600.0	0.0	0.0	1	-360.0	360.0;
	92	110	0.001335	0.004337	0.00756	150.0	150.0	150.0	0.0	0.0	1	-360.0	360.0;
	93	123	0.00175	0.005688	0.00991	150.0	150.0	150.0	0.0	0.0	1	-360.0	360.0;
	95	109	0.001422	0.004623	0.00805	800.0	800.0	800.0	0.0	0.0	1	-360.0	360.0;
	96	100	0.001201	0.003903	0.0068	150.0	150.0	150.0	0.0	0.0	1	-360.0	360.0;
	97	109	0.001531	0.004977	0.00867	400.0	400.0	400.0	0.0	0.0	1	-360.0	360.0;
	97	164	0.001444	0.004694	0.00818	150.0	150.0	150.0	0.0	0.0	1	-360.0	360.0;
	99	103	0.001356	0.004406	0.00767	200.0	200.0	200.0	0.0	0.0	1	-360.0	360.0;
	99	226	0.001264	0.004107	0.00715	150.0	150.0	150.0	0.0	0.0	1	-360.0	360.0;
	100	108	0.00169	0.005492	0.00957	400.0	400.0	400.0	0.0	0.0	1	-360.0	360.0;
	101	193	0.001503	0.004885	0.00851	150.0	150.0	150.0	0.0	0.0	1	-360.0	360.0;
	101	214	0.00126	0.004095	0.00713	150.0	150.0	150.0	0.0	0.0	1	-360.0	360.0;
	101	220	0.001504	0.004889	0.00852	400.0	400.0	400.0	0.0	0.0	1	-360.0	360.0;
	102	185	0.001544	0.005018	0.00874	150.0	150.0	150.0	0.0	0.0	1	-360.0	360.0;
	102	200	0.001447	0.004702	0.00819	150.0	150.0	150.0	0.0	0.0	1	-360.0	360.0;
	103	187	0.00178	0.005784	0.01007	250.0	250.0	250.0	0.0	0.0	1	-360.0	360.0;
	105	125	0.001598	0.005195	0.00905	500.0	500.0	500.0	0.0	0.0	1	-360.0	360.0;
	106	165	0.001548	0.005031	0.00876	150.0	150.0	150.0	0.0	0.0	1	-360.0	360.0;
	107	225	0.001686	0.005479	0.00954	400.0	400.0	400.0	0.0	0.0	1	-360.0	360.0;
	111	189	0.001391	0.004522	0.00788	150.0	150.0	150.0	0.0	0.0	1	-360.0	360.0;
	112	136	0.001352	0.004395	0.00766	150.0	150.0	150.0	0.0	0.0	1	-360.0	360.0;
	114	157	0.001621	0.005268	0.00918	250.0	250.0	250.0	0.0	0.0	1	-360.0	360.0;
	115	192	0.001062	0.003451	0.00601	150.0	150.0	150.0	0.0	0.0	1	-360.0	360.0;
	116	142	0.001327	0.004313	0.00751	150.0	150.0	150.0	0.0	0.0	1	-360.0	360.0;
	116	209	0.001553	0.005046	0.00879	150.0	150.0	150.0	0.0	0.0	1	-360.0	360.0;
	119	139	0.001167	0.003792	0.00661	150.0	150.0	150.0	0.0	0.0	1	-360.0	360.0;
	119	204	0.001542	0.005011	0.00873	250.0	250.0	250.0	0.0	0.0	1	-360.0	360.0;
	120	180	0.001484	0.004824	0.0084	400.0	400.0	400.0	0.0	0.0	1	-360.0	360.0;
	122	163	0.001644	0.005342	0.00931	250.0	250.0	250.0	0.0	0.0	1	-360.0	360.0;
	122	168	0.001728	0.005617	0.00978	800.0	800.0	800.0	0.0	0.0	1	-360.0	360.0;
	124	131	0.001844	0.005992	0.01044	200.0	200.0	200.0	0.0	0.0	1	-360.0	360.0;
	124	166	0.001814	0.005896	0.01027	200.0	200.0	200.0	0.0	0.0	1	-360.0	360.0;
	126	176	0.001449	0.00471	0.00821	1000.0	1000.0	1000.0	0.0	0.0	1	-360.0	360.0;
	127	223	0.001462	0.004752	0.00828	150.0	150.0	150.0	0.0	0.0	1	-360.0	360.0;
	129	176	0.001494	0.004855	0.00846	1000.0	1000.0	1000.0	0.0	0.0	1	-360.0	360.0;
	131	185	0.001659	0.005393	0.00939	150.0	150.0	150.0	0.0	0.0	1	-360.0	360.0;
	133	182	0.001512	0.004913	0.00856	250.0	250.0	250.0	0.0	0.0	1	-360.0	360.0;
	133	206	0.001697	0.005516	0.00961	150.0	150.0	150.0	0.0	0.0	1	-360.0	360.0;
	135	196	0.001553	0.005049	0.00879	150.0	150.0	150.0	0.0	0.0	1	-360.0	360.0;
	138	145	0.001624	0.005279	0.0092	150.0	150.0	150.0	0.0	0.0	1	-360.0	360.0;
	141	151	0.001428	0.004642	0.00809	250.0	250.0	250.0	0.0	0.0	1	-360.0	360.0;
	141	160	0.001446	0.004698	0.00818	150.0	150.0	150.0	0.0	0.0	1	-360.0	360.0;
	147	197	0.00136	0.004421	0.0077	150.0	150.0	150.0	0.0	0.0	1	-360.0	360.0;
	148	190	0.001564	0.005083	0.00885	150.0	150.0	150.0	0.0	0.0	1	-360.0	360.0;
	149	160	0.001608	0.005225	0.0091	400.0	400.0	400.0	0.0	0.0	1	-360.0	360.0;
	151	163	0.001739	0.005653	0.00985	800.0	800.0	800.0	0.0	0.0	1	-360.0	360.0;
	152	171	0.001128	0.003667	0.00639	150.0	150.0	150.0	0.0	0.0	1	-360.0	360.0;
	155	215	0.001813	0.005892	0.01026	150.0	150.0	150.0	0.0	0.0	1	-360.0	360.0;
	156	223	0.001589	0.005163	0.00899	150.0	150.0	150.0	0.0	0.0	1	-360.0	360.0;
	161	222	0.001221	0.003969	0.00691	150.0	150.0	150.0	0.0	0.0	1	-360.0	360.0;
	165	201	0.001169	0.0038	0.00662	150.0	150.0	150.0	0.0	0.0	1	-360.0	360.0;
	167	174	0.001667	0.005419	0.00944	150.0	150.0	150.0	0.0	0.0	1	-360.0	360.0;
	170	190	0.001829	0.005943	0.01035	150.0	150.0	150.0	0.0	0.0	1	-360.0	360.0;
	174	207	0.001378	0.004477	0.0078	300.0	300.0	300.0	0.0	0.0	1	-360.0	360.0;
	175	179	0.001621	0.005269	0.00918	800.0	800.0	800.0	0.0	0.0	1	-360.0	360.0;
	175	184	0.001327	0.004313	0.00751	400.0	400.0	400.0	0.0	0.0	1	-360.0	360.0;
	178	224	0.001999	0.006496	0.01132	150.0	150.0	150.0	0.0	0.0	1	-360.0	360.0;
	179	186	0.001299	0.004223	0.00736	400.0	400.0	400.0	0.0	0.0	1	-360.0	360.0;
	183	207	0.002478	0.008053	0.01403	150.0	150.0	150.0	0.0	0.0	1	-360.0	360.0;
	183	213	0.001315	0.004272	0.00744	150.0	150.0	150.0	0.0	0.0	1	-360.0	360.0;
	187	212	0.001728	0.005617	0.00978	250.0	250.0	250.0	0.0	0.0	1	-360.0	360.0;
	194	206	0.001117	0.003631	0.00632	150.0	150.0	150.0	0.0	0.0	1	-360.0	360.0;
	195	209	0.001239	0.004026	0.00701	150.0	150.0	150.0	0.0	0.0	1	-360.0	360.0;
...
];

%% bus names (imported with matpower_import.apply_bus_names)
mpc.bus_name = {
	'Walddorf_220';
	'Dornmoos_220';
	'Ahornstein_220';
	'Weissbeuren_220';
	'Kiefernloh_220';
	'Binsenmoos_220';
	'Flachsbach_220';
	'Kiefernhof_380';
	'Ahornbeuren_220';
	'Bachburg_220';
	'Schilfmoos_220';
	'Silberheim_220';
	'Seeweiler_220';
	'Ginsterburg_220';
	'Langleben_220';
	'Warmsee_220';
	'Gruenfeld_220';
	'Tiefau_220';
	'Kleinau_220';
	'Langstein_220';
	'Naheck_220';
	'Talburg_220';
	'Kalttal_380';
	'Flachsstadt_220';
	'Silberfurt_220';
	'Dornheim_220';
	'Neuau_220';
	'Lindberg_220';
	'Eichtal_220';
	'Grossstein_220';
	'Grossberg_220';
	'Suedweiler_220';
	'Flachsach_220';
	'Seeeck_220';
	'Sandbeuren_220';
	'Goldsee_220';
	'Ginsterried_220';
	'Warmstein_380';
	'Binsenwalde_220';
	'Ginsterhof_220';
	'Steinborn_220';
	'Bachdorf_220';
	'Fernheim_220';
	'Wiesenach_220';
	'Goldleben_220';
	'Niederhausen_220';
	'Kleinsee_220';
	'Grossfurt_220';
	'Berghagen_220';
	'Neuingen_220';
	'Schilfkirchen_220';
	'Sandkirchen_220';
	'Erlenheim_380';
	'Hainbach_220';
	'Langburg_220';
	'Fichtenfurt_220';
	'Bachheim_220';
	'Waldwang_220';
	'Bergfurt_220';
	'Kaltstadt_220';
	'Lindburg_220';
	'Heideleben_220';
	'Blauborn_220';
	'Birkheim_220';
	'Flachskirchen_220';
	'Tiefeck_220';
	'Schilfhausen_220';
	'Kleinbeuren_380';
	'Feldroda_220';
	'Feldsee_220';
	'Hainbrueck_220';
	'Westleben_220';
	'Espenstein_220';
	'Nahleben_220';
	'Sandhausen_220';
	'Tannental_220';
	'Eichingen_220';
	'Erlenbeuren_220';
	'Kurzhagen_220';
	'Ahorneck_220';
	'Nordach_220';
	'Buchbeuren_220';
	'Buchfurt_380';
	'Nahhof_220';
	'Weissstein_220';
	'Binsenstein_220';
	'Breitstein_220';
	'Binsenweiler_220';
	'Bachhof_220';
	'Flachsheim_220';
	'Erlenkirchen_220';
	'Hanfhausen_220';
	'Feldfurt_220';
	'Steinried_220';
	'Hanfwang_220';
	'Fichtenroda_220';
	'Westbeuren_220';
	'Grossach_380';
	'Bergbach_220';
	'Freimoos_220';
	'Hochingen_220';
	'Nahheim_220';
	'Bergheim_220';
	'Tiefheim_220';
	'Lindstein_220';
	'Freiheim_220';
	'Bachberg_220';
	'Fichtenfeld_220';
	'Fichtenstein_220';
	'Untersee_220';
	'Freiborn_220';
	'Rotheim_220';
	'Seebach_380';
	'Erlendorf_220';
	'Ahorningen_220';
	'Hollertal_220';
	'Flachborn_220';
	'Heidehausen_220';
	'Grosskirchen_220';
	'Wiesenmoos_220';
	'Erlenhausen_220';
	'Niederach_220';
	'Roteck_220';
	'Oberbach_220';
	'Wacholderweiler_220';
	'Binsenleben_220';
	'Unterbach_220';
	'Gruental_380';
	'Weisshagen_220';
	'Kaltau_220';
	'Kiefernheim_220';
	'Langloh_220';
	'Niederberg_220';
	'Sandstadt_220';
	'Breitbrueck_220';
	'Ahornwalde_220';
	'Flachtal_220';
	'Tiefhausen_220';
	'Bergstadt_220';
	'Ostheim_220';
	'Freiach_220';
	'Erlenhagen_220';
	'Rotbeuren_380';
	'Espensee_220';
	'Ulmenburg_220';
	'Heidebrueck_220';
	'Lindkirchen_220';
	'Birkweiler_220';
	'Bergburg_220';
	'Heidedorf_220';
	'Heidewalde_220';
	'Dornried_220';
	'Hollerberg_220';
	'Kurzingen_220';
	'Rotfurt_220';
	'Freiloh_220';
	'Schilfstein_220';
	'Tannenwalde_380';
	'Neuweiler_220';
	'Moorfeld_220';
	'Haselberg_220';
	'Freifurt_220';
	'Flachhof_220';
	'Kiefernleben_220';
	'Flachsau_220';
	'Fichtenborn_220';
	'Feldmoos_220';
	'Wiesenbach_220';
	'Waldfeld_220';
	'Freieck_220';
	'Haselmoos_220';
	'Niederborn_220';
	'Oberwang_380';
	'Ostwalde_220';
	'Wiesenau_220';
	'Tannenau_220';
	'Goldwang_220';
	'Moorburg_220';
	'Oberburg_220';
	'Rotach_220';
	'Kleeloh_220';
	'Oberwalde_220';
	'Moorleben_220';
	'Niederleben_220';
	'Heideheim_220';
	'Binsental_220';
	'Weisskirchen_220';
	'Espenhagen_380';
	'Nordwang_220';
	'Lindhausen_220';
	'Bergloh_220';
	'Waldstadt_220';
	'Espenmoos_220';
	'Blauried_220';
	'Fichtenbach_220';
	'Weissbach_220';
	'Westfurt_220';
	'Niederroda_220';
	'Gruenhagen_220';
	'Warmborn_220';
	'Fernroda_220';
	'Fernborn_220';
	'Haselingen_380';
	'Tiefburg_220';
	'Warmweiler_220';
	'Ostfeld_220';
	'Buchborn_220';
	'Wacholderbach_220';
	'Freiried_220';
	'Wacholderhausen_220';
	'Kleehof_220';
	'Nordsee_220';
	'Heideried_220';
	'Wacholdersee_220';
	'Tiefdorf_220';
	'Wiesenheim_220';
	'Lindmoos_220';
	'Espenau_380';
	'Wacholderstadt_220';
	'Ulmenhagen_220';
	'Eichroda_220';
	'Haselsee_220';
	'Unterwalde_220';
	'Kiesstadt_220';
	'Warmkirchen_220';
	'Rothof_220';
	'Unterhausen_220';
	'Warmhagen_220';
	'Osthausen_220';
	'Hollereck_220';
	'Tannenach_220';
	'Weissstadt_220';
	'Freiwalde_380';
	'Rotingen_220';
	'Warmau_220';
	'Erlenwang_220';
	'Kleemoos_220';
	'Kiefernfeld_220';
	'Warmfurt_220';
	'Hanfbach_220';
	'Freiingen_220';
	'Nahberg_220';
	'Silberwang_220';
	'Bergeck_220';
	'Suedwalde_220';
	'Breitau_220';
	'Erlenborn_220';
	'Fichteneck_380';
	'Schilfwang_220';
	'Espenkirchen_220';
	'Bachhagen_220';
	'Hanfsee_220';
	'Ulmenberg_220';
	'Steinhagen_220';
	'Westdorf_220';
	'Hainstein_220';
	'Ginsterau_220';
	'Warmdorf_220';
	'Nordhausen_220';
	'Haselwalde_220';
	'Talfeld_220';
	'Binsenwang_220';
	'Haselhagen_380';
	'Bachleben_220';
	'Grossdorf_220';
	'Kiesheim_220';
	'Hochleben_220';
	'Untereck_220';
	'Westau_220';
	'Birkstein_220';
	'Dornborn_220';
	'Ahornkirchen_220';
	'Breitburg_220';
	'Westried_220';
	'Haselweiler_220';
	'Tannenhof_220';
	'Kurzberg_220';
	'Kleindorf_380';
	'Kleinheim_220';
	'Birkbeuren_220';
	'Fernwang_220';
	'Seeried_220';
	'Oberweiler_220';
	'Kieshagen_220';
	'Westkirchen_220';
	'Kalteck_220';
	'Westhausen_220';
	'Lindhagen_220';
	'Freital_220';
	'Hanfstein_220';
	'Neukirchen_220';
	'Kiefernsee_220';
	'Flachingen_380';
	'Kleeburg_220';
	'Wiesenkirchen_220';
	'Kiefernmoos_220';
	'Binsenloh_220';
	'Tannenried_220';
	'Tiefloh_220';
	'Moorberg_220';
	'Dornau_220';
	'Blaudorf_220';
	'Kurzfurt_220';
	'Steineck_220';
	'Haselbach_220';
	'Sandfurt_220';
	'Ferntal_220';
	'Heidebach_380';
	'Fichtenkirchen_220';
	'Tannenfurt_220';
	'Seebeuren_220';
	'Langried_220';
	'Eichwalde_220';
	'Hochbeuren_220';
	'Blauach_220';
	'Kleebach_220';
	'Westhagen_220';
	'Birktal_220';
	'Wiesenstadt_220';
	'Hainfeld_220';
	'Blausee_220';
	'Seewang_220';
	'Waldbach_380';
	'Kiefernberg_220';
	'Blaubrueck_220';
	'Flacheck_220';
	'Weisswang_220';
	'Kleinach_220';
	'Nordleben_220';
	'Feldberg_220';
	'Rotwalde_220';
	'Grosshagen_220';
	'Grossburg_220';
	'Ostfurt_220';
	'Erlenstein_220';
	'Espenroda_220';
	'Hainstadt_220';
	'Altfeld_380';
	'Goldfeld_220';
	'Breithausen_220';
	'Heideberg_220';
	'Fernburg_220';
	'Espenbeuren_220';
	'Espenbrueck_220';
	'Hanfburg_220';
	'Hochburg_220';
	'Bachried_220';
	'Nahbrueck_220';
	'Dorndorf_220';
	'Steinstein_220';
	'Erlenburg_220';
	'Ulmenloh_220';
	'Binsenhof_220';
	'Rotleben_380';
	'Oberkirchen_220';
	'Steinmoos_220';
	'Nahhagen_220';
	'Westroda_220';
	'Neuburg_220';
	'Nordstein_220';
	'Wiesenloh_220';
	'Hollerburg_220';
	'Neuach_220';
	'Grueningen_220';
	'Flachsbrueck_220';
	'Haselborn_220';
	'Sandhagen_220';
	'Seebrueck_220';
	'Weissmoos_380';
	'Fernweiler_220';
	'Tannendorf_220';
	'Hocheck_220';
	'Rotsee_220';
	'Binsenhausen_220';
	'Dornstein_220';
	'Schilfbrueck_220';
	'Ostwang_220';
	'Weissau_220';
	'Ulmensee_220';
	'Sandborn_220';
	'Hollerstein_220';
	'Hainweiler_220';
	'Heideloh_220';
	'Steinbeuren_380';
	'Kurzhausen_220';
	'Hanfhof_220';
	'Goldroda_220';
	'Hainloh_220';
	'Espeneck_220';
	'Moorroda_220';
	'Steinberg_220';
	'Espenloh_220';
	'Suedingen_220';
	'Wiesenberg_220';
	'Suedtal_220';
	'Binsenborn_220';
	'Schilfloh_220';
	'Kiefernborn_220';
	'Alttal_380';
	'Breitach_220';
	'Feldheim_220';
	'Nordfurt_220';
	'Kaltweiler_220';
	'Hollerhof_220';
	'Oberau_220';
	'Binsenbrueck_220';
	'Wacholderloh_220';
	'Golddorf_220';
	'Ostbeuren_220';
	'Oberheim_220';
	'Nahried_220';
	'Breitberg_220';
	'Unterstein_220';
	'Hochhagen_380';
	'Sandbach_220';
	'Flachsried_220';
	'Ginsterbach_220';
	'Wacholderburg_220';
	'Langheim_220';
	'Oberach_220';
	'Ulmenried_220';
	'Kiesleben_220';
	'Altheim_220';
	'Steinburg_220';
	'Bergkirchen_220';
	'Feldried_220';
	'Goldau_220';
	'Heidestadt_220';
	'Steinweiler_380';
	'Langtal_220';
	'Ulmenwang_220';
	'Kleekirchen_220';
	'Feldstadt_220';
	'Rotau_220';
	'Neuried_220';
	'Eichfurt_220';
	'Birkfurt_220';
	'Suedberg_220';
	'Ahornhof_220';
	'Ahornwang_220';
	'Steinkirchen_220';
	'Lindeck_220';
	'Moorbach_220';
	'Blauingen_380';
	'Seeingen_220';
	'Freiau_220';
	'Ulmenbach_220';
	'Talwang_220';
	'Weissingen_220';
	'Espental_220';
	'Kleinloh_220';
	'Hanfberg_220';
	'Breitsee_220';
	'Freihausen_220';
	'Freiburg_220';
	'Weisssee_220';
	'Flachbeuren_220';
	'Kleinfurt_220';
	'Neufeld_380';
	'Buchdorf_220';
	'Feldleben_220';
	'Tieffurt_220';
	'Weisstal_220';
	'Binsenhagen_220';
	'Sandfeld_220';
	'Westsee_220';
	'Wacholderkirchen_220';
	'Waldroda_220';
	'Erlenau_220';
	'Langbrueck_220';
	'Moormoos_220';
	'Grosswang_220';
	'Nahstadt_220';
	'Birkborn_380';
	'Tiefstadt_220';
	'Hanfroda_220';
	'Gruenstein_220';
	'Binsenroda_220';
	'Kiesloh_220';
	'Schilfsee_220';
	'Buchtal_220';
	'Warmbrueck_220';
	'Sandtal_220';
	'Kiefernweiler_220';
	'Fernbrueck_220';
	'Kleinroda_220';
	'Goldbeuren_220';
	'Blauroda_220';
	'Warmbach_380';
	'Wacholdereck_220';
	'Buchau_220';
	'Kurzleben_220';
	'Suedhausen_220';
	'Kieferntal_220';
	'Ahornau_220';
	'Haseltal_220';
	'Lindach_220';
	'Buchbach_220';
	'Goldried_220';
	'Breitwalde_220';
	'Buchroda_220';
	'Waldmoos_220';
	'Bachtal_220';
	'Kleewang_380';
	'Wiesenstein_220';
	'Fichtenmoos_220';
	'Ostborn_220';
	'Silberroda_220';
	'Gruenwang_220';
	'Ahorndorf_220';
	'Altbeuren_220';
	'Nordeck_220';
	'Grossborn_220';
	'Tannenbrueck_220';
	'Erlensee_220';
	'Kurzsee_220';
	'Warmleben_220';
	'Kurzhof_220';
	'Freibach_380';
	'Bergfeld_220';
	'Altried_220';
	'Nordheim_220';
	'Fernleben_220';
	'Wacholderfurt_220';
	'Ostau_220';
	'Sandhof_220';
	'Dornbach_220';
	'Hochkirchen_220';
	'Dornstadt_220';
	'Kleesee_220';
	'Erleneck_220';
	'Ginsterbrueck_220';
	'Waldheim_220';
	'Hollerbrueck_380';
	'Fichtensee_220';
	'Warmfeld_220';
	'Hanfeck_220';
	'Altburg_220';
	'Wacholderhagen_220';
	'Kaltbach_220';
	'Weststein_220';
	'Wiesenburg_220';
	'Goldheim_220';
	'Hainach_220';
	'Hochloh_220';
	'Bergmoos_220';
	'Hochhof_220';
	'Feldhagen_220';
	'Nordweiler_380';
	'Tannenleben_220';
	'Moorborn_220';
	'Breitleben_220';
	'Eichmoos_220';
	'Kiesroda_220';
	'Kleinhagen_220';
	'Nordborn_220';
	'Ulmeneck_220';
	'Tanneneck_220';
	'Berghausen_220';
	'Freidorf_220';
	'Dornhagen_220';
	'Ahornried_220';
	'Blauberg_220';
	'Ginsterkirchen_380';
	'Nahroda_220';
	'Wiesenhausen_220';
	'Unterroda_220';
	'Unterwang_220';
	'Altstadt_220';
	'Tiefkirchen_220';
	'Bachach_220';
	'Feldtal_220';
	'Bergroda_220';
	'Schilffurt_220';
	'Tiefried_220';
	'Nahmoos_220';
	'Kaltheim_220';
	'Oberdorf_220';
	'Rotburg_380';
	'Hainheim_220';
	'Kiefernhausen_220';
	'Bergbeuren_220';
	'Tiefach_220';
	'Kleefeld_220';
	'Seehof_220';
	'Lindwalde_220';
	'Gruenbrueck_220';
	'Kiesfurt_220';
	'Erlenfeld_220';
	'Suedfurt_220';
	'Sanddorf_220';
	'Kaltfurt_220';
	'Blauweiler_220';
	'Unterfurt_380';
	'Blauburg_220';
	'Fichteningen_220';
	'Ginsterroda_220';
	'Gruenburg_220';
	'Steinheim_220';
	'Rotborn_220';
	'Schilfbach_220';
	'Fichtenhagen_220';
	'Grosshof_220';
	'Heideau_220';
	'Kaltdorf_220';
	'Ahornloh_220';
	'Hochfurt_220';
	'Sandburg_220';
	'Buchfeld_380';
	'Ginsterstadt_220';
	'Altkirchen_220';
	'Althausen_220';
	'Kleeberg_220';
	'Eichdorf_220';
	'Altsee_220';
	'Lindstadt_220';
	'Silberried_220';
	'Suedheim_220';
	'Talleben_220';
	'Neuloh_220';
	'Lindroda_220';
	'Heidewang_220';
	'Kiesstein_220';
	'Steinhof_380';
	'Haselstadt_220';
	'Sandheim_220';
	'Goldwalde_220';
	'Kurzkirchen_220';
	'Kleinried_220';
	'Eichstadt_220';
	'Ginsterhagen_220';
	'Buchach_220';
	'Flachstal_220';
	'Grossloh_220';
	'Bergberg_220';
	'Steinbrueck_220';
	'Dornfeld_220';
	'Oststadt_220';
	'Goldweiler_380';
	'Espenfeld_220';
	'Hollermoos_220';
	'Tiefweiler_220';
	'Nahwang_220';
	'Freisee_220';
	'Ahornborn_220';
	'Neuhof_220';
	'Bachbeuren_220';
	'Haselbrueck_220';
	'Weisseck_220';
	'Hollerborn_220';
	'Weissberg_220';
	'Silberburg_220';
	'Seeheim_220';
	'Blauloh_380';
	'Warmbeuren_220';
	'Mooringen_220';
	'Buchstein_220';
	'Kleeingen_220';
	'Kiefernried_220';
	'Fichtenhausen_220';
	'Flachdorf_220';
	'Unterdorf_220';
	'Buchleben_220';
	'Fernloh_220';
	'Oberloh_220';
	'Kleinstadt_220';
	'Langhof_220';
	'Tannenheim_220';
	'Fichtenwalde_380';
	'Nahstein_220';
	'Eichweiler_220';
	'Flachsfurt_220';
	'Nahsee_220';
	'Goldstadt_220';
	'Talstein_220';
	'Flachhagen_220';
	'Hanfau_220';
	'Espenborn_220';
	'Weissried_220';
	'Lindhof_220';
	'Ginsterleben_220';
	'Kleinbrueck_220';
	'Hollerstadt_220';
	'Ulmenfeld_220';
	'Weisshof_380';
	'Silbereck_220';
	'Heideburg_220';
	'Wacholdertal_220';
	'Buchwang_220';
	'Haselheim_220';
	'Goldhagen_220';
	'Eichbach_220';
	'Schilfheim_220';
	'Suedau_220';
	'Unterstadt_220';
	'Wiesendorf_220';
	'Nordstadt_220';
	'Ahornburg_220';
	'Wacholderfeld_220';
	'Althof_380';
	'Buchsee_220';
	'Goldborn_220';
	'Hochstein_220';
	'Hollersee_220';
	'Niederfurt_220';
	'Ostmoos_220';
	'Kurzstein_220';
	'Weissburg_220';
	'Warmtal_220';
	'Talhausen_220';
	'Kiefernach_220';
	'Talach_220';
	'Breitkirchen_220';
	'Sandstein_220';
	'Unterbrueck_380';
	'Kleeach_220';
	'Waldsee_220';
	'Feldbeuren_220';
	'Ulmenkirchen_220';
	'Binsenkirchen_220';
	'Hanfborn_220';
	'Hanfhagen_220';
	'Wacholderried_220';
	'Ostbach_220';
	'Grossbeuren_220';
	'Lindau_220';
	'Nordbeuren_220';
	'Kieskirchen_220';
	'Buchingen_220';
	'Breitroda_380';
	'Flachsburg_220';
	'Dornsee_220';
	'Tannenroda_220';
	'Dornloh_220';
	'Nordingen_220';
	'Oberberg_220';
	'Erlenfurt_220';
	'Nahwalde_220';
	'Sandau_220';
	'Birkried_220';
	'Feldach_220';
	'Hainroda_220';
	'Moorwang_220';
	'Waldborn_220';
	'Gruenweiler_380';
	'Feldhausen_220';
	'Sandberg_220';
	'Eichborn_220';
	'Steinhausen_220';
	'Ginsterwalde_220';
	'Langingen_220';
	'Nahau_220';
	'Ostkirchen_220';
	'Hainberg_220';
	'Blauhausen_220';
	'Gruenleben_220';
	'Waldhagen_220';
	'Silberhausen_220';
	'Tannenloh_220';
	'Hanffeld_380';
	'Waldhof_220';
	'Grossingen_220';
	'Erlenbrueck_220';
	'Moorwalde_220';
	'Goldtal_220';
	'Neuwang_220';
	'Kieshof_220';
	'Waldried_220';
	'Ginsterfeld_220';
	'Althagen_220';
	'Rotried_220';
	'Unterhof_220';
	'Dornbeuren_220';
	'Goldstein_220';
	'Nordhof_380';
	'Gruenau_220';
	'Kurzroda_220';
	'Hainwalde_220';
	'Kaltborn_220';
	'Altbrueck_220';
	'Tiefbach_220';
	'Weissloh_220';
	'Wacholderborn_220';
	'Rothagen_220';
	'Hollerwalde_220';
	'Hanfwalde_220';
	'Niederheim_220';
	'Breitbeuren_220';
	'Haindorf_220';
	'Flachstein_380';
	'Birkburg_220';
	'Niedersee_220';
	'Unterborn_220';
	'Bergwang_220';
	'Lindwang_220';
	'Eichhausen_220';
	'Tannenmoos_220';
	'Suedkirchen_220';
	'Eichhagen_220';
	'Espenach_220';
	'Flachmoos_220';
	'Sandsee_220';
	'Kiesach_220';
	'Haselach_220';
	'Hochsee_380';
	'Tannenwang_220';
	'Birkloh_220';
	'Oberfeld_220';
	'Haselburg_220';
	'Ahornbrueck_220';
	'Binsenach_220';
	'Gruenborn_220';
	'Hollerach_220';
	'Buchheim_220';
	'Blaumoos_220';
	'Grossweiler_220';
	'Silberau_220';
	'Blauwang_220';
	'Hanfleben_220';
	'Hanfingen_380';
	'Langsee_220';
	'Flachsroda_220';
	'Espenwalde_220';
	'Kaltloh_220';
	'Kleinhof_220';
	'Flachswalde_220';
	'Heidemoos_220';
	'Tannenburg_220';
	'Tiefroda_220';
	'Langroda_220';
	'Espenberg_220';
	'Oberbeuren_220';
	'Nordried_220';
	'Lindleben_220';
	'Moorstein_380';
	'Hainkirchen_220';
	'Waldach_220';
	'Dornwalde_220';
	'Kiesdorf_220';
	'Fichtenstadt_220';
	'Bergried_220';
	'Kiesmoos_220';
	'Seeburg_220';
	'Moorfurt_220';
	'Westborn_220';
	'Haselried_220';
	'Haintal_220';
	'Ulmenbeuren_220';
	'Bergach_220';
	'Espenbach_380';
	'Dornburg_220';
	'Niedereck_220';
	'Weissweiler_220';
	'Steinfeld_220';
	'Freiweiler_220';
	'Waldtal_220';
	'Hanfkirchen_220';
	'Grosseck_220';
	'Hollerroda_220';
	'Suedsee_220';
	'Neuwalde_220';
	'Breiteck_220';
	'Ahornfeld_220';
	'Altroda_220';
	'Oberleben_380';
	'Niederwalde_220';
	'Blaufeld_220';
	'Seedorf_220';
	'Breitfurt_220';
	'Flachsberg_220';
	'Osthof_220';
	'Kleeleben_220';
	'Kiestal_220';
	'Tannenhausen_220';
	'Birkhagen_220';
	'Fernach_220';
	'Hainau_220';
	'Binsenfurt_220';
	'Oberroda_220';
	'Felddorf_380';
	'Warmwalde_220';
	'Wiesenfeld_220';
	'Langkirchen_220';
	'Seehausen_220';
	'Altach_220';
	'Kieseck_220';
	'Silberkirchen_220';
	'Feldeck_220';
	'Langfurt_220';
	'Buchhausen_220';
	'Wacholderach_220';
	'Ulmeningen_220';
	'Eichburg_220';
	'Hollerhagen_220';
	'Neubach_380';
	'Silberborn_220';
	'Gruenhof_220';
	'Feldfeld_220';
	'Nordloh_220';
	'Erlenach_220';
	'Westhof_220';
	'Haselkirchen_220';
	'Niederdorf_220';
	'Wacholderstein_220';
	'Kaltsee_220';
	'Suedburg_220';
	'Ginsteringen_220';
	'Steinleben_220';
	'Suedhof_220';
	'Weststadt_380';
	'Moorhagen_220';
	'Birkbrueck_220';
	'Neuroda_220';
	'Ahornberg_220';
	'Breitstadt_220';
	'Nahfeld_220';
	'Goldhausen_220';
	'Gruenwalde_220';
	'Altwang_220';
	'Langfeld_220';
	'Unterweiler_220';
	'Talfurt_220';
	'Sandwalde_220';
	'Kiefernstadt_220';
	'Binsenberg_380';
	'Langwalde_220';
	'Goldburg_220';
	'Eichach_220';
	'Hanffurt_220';
	'Heideingen_220';
	'Erlenweiler_220';
	'Kiefernkirchen_220';
	'Dornweiler_220';
	'Kurzborn_220';
	'Silberdorf_220';
	'Grossmoos_220';
	'Schilfach_220';
	'Westwang_220';
	'Niederau_220';
	'Suedeck_380';
	'Feldingen_220';
	'Ginsterfurt_220';
	'Ginsterberg_220';
	'Birkhof_220';
	'Freiroda_220';
	'Flachsloh_220';
	'Nordwalde_220';
	'Tannenhagen_220';
	'Moorkirchen_220';
	'Seekirchen_220';
	'Schilfingen_220';
	'Breitingen_220';
	'Kleinwalde_220';
	'Hainborn_220';
	'Fernmoos_380';
	'Nordbrueck_220';
	'Flachwang_220';
	'Ginsterstein_220';
	'Eichwang_220';
	'Tiefwang_220';
	'Eichried_220';
	'Warmberg_220';
	'Silbertal_220';
	'Breitried_220';
	'Suedach_220';
	'Warmmoos_220';
	'Kaltstein_220';
	'Haineck_220';
	'Schilfstadt_220';
	'Moorau_380';
	'Ginsterheim_220';
	'Grossstadt_220';
	'Binsenau_220';
	'Talroda_220';
	'Bergweiler_220';
	'Goldhof_220';
	'Kleiningen_220';
	'Kleeheim_220';
	'Dornhof_220';
	'Flachried_220';
	'Buchbrueck_220';
	'Ulmenweiler_220';
	'Silberleben_220';
	'Ulmenach_220';
	'Breithagen_380';
	'Weissborn_220';
	'Weisshausen_220';
	'Kleinfeld_220';
	'Flachbrueck_220';
	'Wiesenweiler_220';
	'Eichkirchen_220';
	'Eichleben_220';
	'Kurzbeuren_220';
	'Haselhausen_220';
	'Erlenmoos_220';
	'Langach_220';
	'Grossfeld_220';
	'Wiesenbeuren_220';
	'Ferningen_220';
	'Ginsterwang_380';
	'Kiefernhagen_220';
	'Heideach_220';
	'Wiesenhof_220';
	'Neuberg_220';
	'Wiesental_220';
	'Flachroda_220';
	'Fernberg_220';
	'Ulmendorf_220';
	'Ginstermoos_220';
	'Lindborn_220';
	'Buchweiler_220';
	'Nahfurt_220';
	'Kleeweiler_220';
	'Grosswalde_220';
	'Kiesbach_220';
	'Wiesenwalde_380';
	'Breitfeld_220';
	'Seewalde_220';
	'Binseneck_220';
	'Heidetal_220';
	'Suedmoos_220';
	'Ahorntal_220';
	'Niederbrueck_220';
	'Ulmenstein_220';
	'Gruenried_220';
	'Ahornstadt_220';
	'Hollerdorf_220';
	'Blauwalde_220';
	'Neuhagen_220';
	'Hochborn_220';
	'Birkbach_380';
	'Silberach_220';
	'Hochau_220';
	'Fernhof_220';
	'Kurzburg_220';
	'Ginsterloh_220';
	'Fichtenhof_220';
	'Kurztal_220';
	'Kiesfeld_220';
	'Silberbeuren_220';
	'Ostach_220';
	'Westwalde_220';
	'Buchberg_220';
	'Bachingen_220';
	'Espenweiler_220';
	'Birkingen_380';
	'Osttal_220';
	'Breittal_220';
	'Gruenhausen_220';
	'Ulmenfurt_220';
	'Gruenberg_220';
	'Unterhagen_220';
	'Kaltmoos_220';
	'Talwalde_220';
	'Altberg_220';
	'Steindorf_220';
	'Flachsingen_220';
	'Kaltfeld_220';
	'Buchmoos_220';
	'Ginsterhausen_220';
	'Unterfeld_380';
	'Wacholdermoos_220';
	'Hanfheim_220';
	'Bergau_220';
	'Eichau_220';
	'Hollerried_220';
	'Wacholderleben_220';
	'Flachshausen_220';
	'Kleinweiler_220';
	'Westach_220';
	'Mooreck_220';
	'Grossau_220';
	'Kaltwalde_220';
	'Hochhausen_220';
	'Suedfeld_220';
	'Freibrueck_380';
	'Gruenstadt_220';
	'Espenleben_220';
	'Weissleben_220';
	'Flachheim_220';
	'Kurzloh_220';
	'Ahornach_220';
	'Norddorf_220';
	'Hollerleben_220';
	'Kiesried_220';
	'Oststein_220';
	'Buchhagen_220';
	'Flachsweiler_220';
	'Espeningen_220';
	'Seeberg_220';
	'Flachloh_380';
	'Weissdorf_220';
	'Talsee_220';
	'Fichtenheim_220';
	'Steinloh_220';
	'Seehagen_220';
	'Moorbeuren_220';
	'Silberstadt_220';
	'Talried_220';
	'Talingen_220';
	'Gruendorf_220';
	'Westburg_220';
	'Schilfhagen_220';
	'Kaltbrueck_220';
	'Grosshausen_220';
	'Wacholderberg_380';
	'Goldkirchen_220';
	'Bachwalde_220';
	'Suedleben_220';
	'Silberwalde_220';
	'Schilfroda_220';
	'Suedried_220';
	'Wacholderdorf_220';
	'Unterried_220';
	'Grossbach_220';
	'Oberborn_220';
	'Oberhausen_220';
	'Lindfurt_220';
	'Lindfeld_220';
	'Suedstein_220';
	'Heideroda_380';
	'Dornbrueck_220';
	'Buchwalde_220';
	'Fichtenbeuren_220';
	'Kleinwang_220';
	'Seestadt_220';
	'Gruenroda_220';
	'Kiefernroda_220';
	'Seemoos_220';
	'Altstein_220';
	'Freistein_220';
	'Dornfurt_220';
	'Ostingen_220';
	'Tanneningen_220';
	'Moorweiler_220';
	'Hainwang_380';
	'Osthagen_220';
	'Kleinberg_220';
	'Buchhof_220';
	'Neuleben_220';
	'Tiefberg_220';
	'Schilfried_220';
	'Weissfurt_220';
	'Lindtal_220';
	'Goldberg_220';
	'Unterkirchen_220';
	'Kalthof_220';
	'Erlenleben_220';
	'Tannenweiler_220';
	'Fernstein_220';
	'Kurzbrueck_380';
	'Neubrueck_220';
	'Steinwalde_220';
	'Buchried_220';
	'Rotloh_220';
	'Goldloh_220';
	'Rotstadt_220';
	'Hainhausen_220';
	'Blauleben_220';
	'Blaukirchen_220';
	'Flachsdorf_220';
	'Haselhof_220';
	'Niederbach_220';
	'Neuhausen_220';
	'Nahburg_220';
	'Kurzach_380';
	'Schilfborn_220';
	'Warmstadt_220';
	'Breitloh_220';
	'Unterberg_220';
	'Suedwang_220';
	'Nordroda_220';
	'Talhof_220';
	'Kaltried_220';
	'Steinbach_220';
	'Altbach_220';
	'Niederried_220';
	'Waldberg_220';
	'Seeach_220';
	'Rotweiler_220';
	'Buchstadt_380';
	'Birkach_220';
	'Blaubach_220';
	'Nahtal_220';
	'Fichtenleben_220';
	'Ostburg_220';
	'Ostbrueck_220';
	'Wiesenfurt_220';
	'Nordbach_220';
	'Goldbach_220';
	'Fichtenach_220';
	'Tannenberg_220';
	'Moorheim_220';
	'Wacholderbeuren_220';
	'Ostberg_220';
	'Kaltbeuren_380';
	'Ahornheim_220';
	'Binsensee_220';
	'Feldburg_220';
	'Erlenberg_220';
	'Rotmoos_220';
	'Ahornsee_220';
	'Fernbach_220';
	'Schilfeck_220';
	'Kurzbach_220';
	'Taltal_220';
	'Obersee_220';
	'Kaltburg_220';
	'Oberhagen_220';
	'Kleewalde_220';
	'Seeloh_380';
	'Wiesenborn_220';
	'Binseningen_220';
	'Kiesberg_220';
	'Heidefeld_220';
	'Lindingen_220';
	'Freifeld_220';
	'Altwalde_220';
	'Tannenbach_220';
	'Kurzfeld_220';
	'Altau_220';
	'Waldingen_220';
	'Kaltwang_220';
	'Niederwang_220';
	'Flachsstein_220';
	'Heidehof_380';
	'Kiesbrueck_220';
	'Kieswalde_220';
	'Tieffeld_220';
	'Langau_220';
	'Kiefernbrueck_220';
	'Hanftal_220';
	'Hochberg_220';
	'Bachmoos_220';
	'Ostleben_220';
	'Hainhagen_220';
	'Westberg_220';
	'Ulmenhausen_220';
	'Westbrueck_220';
	'Talmoos_220';
	'Ulmenbrueck_380';
	'Tiefbrueck_220';
	'Wieseningen_220';
	'Birkfeld_220';
	'Suedloh_220';
	'Sandbrueck_220';
	'Niederhagen_220';
	'Waldfurt_220';
	'Flachshagen_220';
	'Fernbeuren_220';
	'Bachsee_220';
	'Haselau_220';
	'Warmried_220';
	'Nahborn_220';
	'Breitweiler_220';
	'Ostsee_380';
	'Kleehausen_220';
	'Kleetal_220';
	'Kiefernfurt_220';
	'Nordtal_220';
	'Hainburg_220';
	'Haselloh_220';
	'Kleebrueck_220';
	'Schilfweiler_220';
	'Steinfurt_220';
	'Kiesborn_220';
	'Blauau_220';
	'Seeborn_220';
	'Hollerfeld_220';
	'Kiefernstein_220';
	'Flachssee_380';
	'Kiefernbeuren_220';
	'Tiefsee_220';
	'Niederstein_220';
	'Eichbeuren_220';
	'Dornberg_220';
	'Kiefernwalde_220';
	'Steintal_220';
	'Erlenstadt_220';
	'Hanfbeuren_220';
	'Birkhausen_220';
	'Bachbrueck_220';
	'Dornwang_220';
	'Nahkirchen_220';
	'Freikirchen_220';
	'Ostloh_380';
	'Kiesburg_220';
...